<?xml version="1.0" encoding="UTF-8"?>

<!-- generated on 2024-02-02 14:41:30 by Eclipse SUMO sumo Version 1.18.0
-->

<configuration xmlns:xsi="http://www.w3.org/2001/XMLSchema-instance" xsi:noNamespaceSchemaLocation="http://sumo.dlr.de/xsd/sumoConfiguration.xsd">

    <input>
        <net-file value="road_network.net.xml"/>
        <route-files value="road_network_map.rou.xml"/>
        <additional-files value="road_network_additional.add.xml"/>
    </input>

</configuration>
