<?xml version="1.0" encoding="UTF-8"?>

<!-- generated on 2024-02-02 14:37:34 by Eclipse SUMO netedit Version 1.18.0
<configuration xmlns:xsi="http://www.w3.org/2001/XMLSchema-instance" xsi:noNamespaceSchemaLocation="http://sumo.dlr.de/xsd/neteditConfiguration.xsd">

    <input>
        <sumo-net-file value="C:\Users\LEGION\Desktop\Folder\project_sumo_files\config_3\road_network.net.xml"/>
    </input>

    <output>
        <output-file value="C:\Users\LEGION\Desktop\Folder\project_sumo_files\config_3\road_network.net.xml"/>
    </output>

    <processing>
        <geometry.min-radius.fix.railways value="false"/>
        <geometry.max-grade.fix value="false"/>
        <offset.disable-normalization value="true"/>
        <lefthand value="true"/>
    </processing>

    <junctions>
        <no-turnarounds value="true"/>
        <junctions.corner-detail value="5"/>
        <junctions.limit-turn-speed value="5.50"/>
        <rectangular-lane-cut value="0"/>
    </junctions>

    <pedestrian>
        <walkingareas value="0"/>
    </pedestrian>

</configuration>
-->

<net version="1.16" junctionCornerDetail="5" lefthand="true" limitTurnSpeed="5.50" xmlns:xsi="http://www.w3.org/2001/XMLSchema-instance" xsi:noNamespaceSchemaLocation="http://sumo.dlr.de/xsd/net_file.xsd">

    <location netOffset="0.00,0.00" convBoundary="-800.00,-800.00,1000.00,200.00" origBoundary="-10000000000.00,-10000000000.00,10000000000.00,10000000000.00" projParameter="!"/>

    <edge id=":J1_0" function="internal">
        <lane id=":J1_0_0" index="0" disallow="pedestrian" speed="30.00" length="20.80" shape="-404.80,89.60 -404.80,110.40"/>
    </edge>
    <edge id=":J1_1" function="internal">
        <lane id=":J1_1_0" index="0" disallow="pedestrian" speed="10.10" length="5.43" shape="-404.80,89.60 -403.47,94.86"/>
    </edge>
    <edge id=":J1_2" function="internal">
        <lane id=":J1_2_0" index="0" disallow="pedestrian" speed="8.00" length="14.19" shape="-401.60,89.60 -402.15,93.45 -403.80,96.20 -406.55,97.85 -410.40,98.40"/>
    </edge>
    <edge id=":J1_3" function="internal">
        <lane id=":J1_3_0" index="0" disallow="pedestrian" speed="30.00" length="20.80" shape="-401.60,89.60 -401.60,110.40"/>
    </edge>
    <edge id=":J1_16" function="internal">
        <lane id=":J1_16_0" index="0" disallow="pedestrian" speed="10.10" length="17.79" shape="-403.47,94.86 -403.43,95.00 -399.89,99.89 -395.00,103.43 -389.60,104.80"/>
    </edge>
    <edge id=":J1_4" function="internal">
        <lane id=":J1_4_0" index="0" disallow="pedestrian" speed="30.00" length="20.80" shape="-389.60,95.20 -410.40,95.20"/>
    </edge>
    <edge id=":J1_5" function="internal">
        <lane id=":J1_5_0" index="0" disallow="pedestrian" speed="10.10" length="23.22" shape="-389.60,95.20 -395.00,96.57 -399.89,100.11 -403.43,105.00 -404.80,110.40"/>
    </edge>
    <edge id=":J1_6" function="internal">
        <lane id=":J1_6_0" index="0" disallow="pedestrian" speed="8.00" length="14.19" shape="-389.60,98.40 -393.45,97.85 -396.20,96.20 -397.85,93.45 -398.40,89.60"/>
    </edge>
    <edge id=":J1_7" function="internal">
        <lane id=":J1_7_0" index="0" disallow="pedestrian" speed="30.00" length="20.80" shape="-389.60,98.40 -410.40,98.40"/>
    </edge>
    <edge id=":J1_8" function="internal">
        <lane id=":J1_8_0" index="0" disallow="pedestrian" speed="30.00" length="20.80" shape="-395.20,110.40 -395.20,89.60"/>
    </edge>
    <edge id=":J1_9" function="internal">
        <lane id=":J1_9_0" index="0" disallow="pedestrian" speed="10.10" length="5.43" shape="-395.20,110.40 -396.53,105.14"/>
    </edge>
    <edge id=":J1_10" function="internal">
        <lane id=":J1_10_0" index="0" disallow="pedestrian" speed="8.00" length="14.19" shape="-398.40,110.40 -397.85,106.55 -396.20,103.80 -393.45,102.15 -389.60,101.60"/>
    </edge>
    <edge id=":J1_11" function="internal">
        <lane id=":J1_11_0" index="0" disallow="pedestrian" speed="30.00" length="20.80" shape="-398.40,110.40 -398.40,89.60"/>
    </edge>
    <edge id=":J1_17" function="internal">
        <lane id=":J1_17_0" index="0" disallow="pedestrian" speed="10.10" length="17.79" shape="-396.53,105.14 -396.57,105.00 -400.11,100.11 -405.00,96.57 -410.40,95.20"/>
    </edge>
    <edge id=":J1_12" function="internal">
        <lane id=":J1_12_0" index="0" disallow="pedestrian" speed="30.00" length="20.80" shape="-410.40,104.80 -389.60,104.80"/>
    </edge>
    <edge id=":J1_13" function="internal">
        <lane id=":J1_13_0" index="0" disallow="pedestrian" speed="10.10" length="23.22" shape="-410.40,104.80 -405.00,103.43 -400.11,99.89 -396.57,95.00 -395.20,89.60"/>
    </edge>
    <edge id=":J1_14" function="internal">
        <lane id=":J1_14_0" index="0" disallow="pedestrian" speed="8.00" length="14.19" shape="-410.40,101.60 -406.55,102.15 -403.80,103.80 -402.15,106.55 -401.60,110.40"/>
    </edge>
    <edge id=":J1_15" function="internal">
        <lane id=":J1_15_0" index="0" disallow="pedestrian" speed="30.00" length="20.80" shape="-410.40,101.60 -389.60,101.60"/>
    </edge>
    <edge id=":J10_0" function="internal">
        <lane id=":J10_0_0" index="0" disallow="pedestrian" speed="30.00" length="21.95" shape="195.20,-311.55 195.20,-289.60"/>
    </edge>
    <edge id=":J10_1" function="internal">
        <lane id=":J10_1_0" index="0" disallow="pedestrian" speed="10.28" length="5.55" shape="195.20,-311.55 196.46,-306.15"/>
    </edge>
    <edge id=":J10_2" function="internal">
        <lane id=":J10_2_0" index="0" disallow="pedestrian" speed="7.74" length="14.86" shape="198.40,-311.55 197.80,-307.43 196.02,-304.70 193.04,-303.39 188.87,-303.48"/>
    </edge>
    <edge id=":J10_3" function="internal">
        <lane id=":J10_3_0" index="0" disallow="pedestrian" speed="30.00" length="21.95" shape="198.40,-311.55 198.40,-289.60"/>
    </edge>
    <edge id=":J10_16" function="internal">
        <lane id=":J10_16_0" index="0" disallow="pedestrian" speed="10.28" length="18.56" shape="196.46,-306.15 196.53,-305.86 200.01,-300.59 204.89,-296.71 210.40,-295.20"/>
    </edge>
    <edge id=":J10_4" function="internal">
        <lane id=":J10_4_0" index="0" disallow="pedestrian" speed="30.00" length="21.13" shape="210.40,-304.80 204.29,-304.86 199.84,-305.10 195.43,-305.65 189.39,-306.63"/>
    </edge>
    <edge id=":J10_5" function="internal">
        <lane id=":J10_5_0" index="0" disallow="pedestrian" speed="10.10" length="23.22" shape="210.40,-304.80 205.00,-303.43 200.11,-299.89 196.57,-295.00 195.20,-289.60"/>
    </edge>
    <edge id=":J10_6" function="internal">
        <lane id=":J10_6_0" index="0" disallow="pedestrian" speed="8.25" length="15.13" shape="210.40,-301.60 206.55,-302.22 203.80,-304.09 202.15,-307.20 201.60,-311.55"/>
    </edge>
    <edge id=":J10_7" function="internal">
        <lane id=":J10_7_0" index="0" disallow="pedestrian" speed="30.00" length="21.66" shape="210.40,-301.60 204.20,-301.66 199.58,-301.92 194.99,-302.49 188.87,-303.48"/>
    </edge>
    <edge id=":J10_8" function="internal">
        <lane id=":J10_8_0" index="0" disallow="pedestrian" speed="30.00" length="21.95" shape="204.80,-289.60 204.80,-311.55"/>
    </edge>
    <edge id=":J10_9" function="internal">
        <lane id=":J10_9_0" index="0" disallow="pedestrian" speed="11.04" length="5.54" shape="204.80,-289.60 203.49,-294.98"/>
    </edge>
    <edge id=":J10_10" function="internal">
        <lane id=":J10_10_0" index="0" disallow="pedestrian" speed="8.00" length="14.19" shape="201.60,-289.60 202.15,-293.45 203.80,-296.20 206.55,-297.85 210.40,-298.40"/>
    </edge>
    <edge id=":J10_11" function="internal">
        <lane id=":J10_11_0" index="0" disallow="pedestrian" speed="30.00" length="21.95" shape="201.60,-289.60 201.60,-311.55"/>
    </edge>
    <edge id=":J10_17" function="internal">
        <lane id=":J10_17_0" index="0" disallow="pedestrian" speed="11.04" length="18.89" shape="203.49,-294.98 203.45,-295.14 199.93,-300.36 194.99,-304.46 189.39,-306.63"/>
    </edge>
    <edge id=":J10_12" function="internal">
        <lane id=":J10_12_0" index="0" disallow="pedestrian" speed="30.00" length="22.71" shape="187.81,-297.16 194.10,-296.16 199.06,-295.57 204.04,-295.28 210.40,-295.20"/>
    </edge>
    <edge id=":J10_13" function="internal">
        <lane id=":J10_13_0" index="0" disallow="pedestrian" speed="9.76" length="24.35" shape="187.81,-297.16 193.56,-297.86 199.05,-301.12 203.18,-306.00 204.80,-311.55"/>
    </edge>
    <edge id=":J10_14" function="internal">
        <lane id=":J10_14_0" index="0" disallow="pedestrian" speed="9.07" length="16.21" shape="188.34,-300.32 192.74,-299.02 195.88,-296.80 197.77,-293.66 198.40,-289.60"/>
    </edge>
    <edge id=":J10_15" function="internal">
        <lane id=":J10_15_0" index="0" disallow="pedestrian" speed="30.00" length="22.18" shape="188.34,-300.32 194.54,-299.33 199.32,-298.74 204.12,-298.47 210.40,-298.40"/>
    </edge>
    <edge id=":J13_0" function="internal">
        <lane id=":J13_0_0" index="0" disallow="pedestrian" speed="30.00" length="22.71" shape="-387.81,-402.84 -394.10,-403.84 -399.06,-404.43 -404.04,-404.72 -410.40,-404.80"/>
    </edge>
    <edge id=":J13_1" function="internal">
        <lane id=":J13_1_0" index="0" disallow="pedestrian" speed="10.16" length="26.47" shape="-387.81,-402.84 -395.24,-403.00 -400.55,-400.65 -403.74,-395.80 -404.80,-388.45"/>
    </edge>
    <edge id=":J13_2" function="internal">
        <lane id=":J13_2_0" index="0" disallow="pedestrian" speed="30.00" length="22.18" shape="-388.34,-399.68 -394.54,-400.67 -399.32,-401.26 -404.12,-401.53 -410.40,-401.60"/>
    </edge>
    <edge id=":J13_3" function="internal">
        <lane id=":J13_3_0" index="0" disallow="pedestrian" speed="10.55" length="25.45" shape="-395.20,-388.45 -396.15,-395.60 -399.00,-400.71 -403.75,-403.78 -410.40,-404.80"/>
    </edge>
    <edge id=":J13_4" function="internal">
        <lane id=":J13_4_0" index="0" disallow="pedestrian" speed="7.74" length="14.86" shape="-398.40,-388.45 -397.80,-392.57 -396.02,-395.30 -393.04,-396.61 -388.87,-396.52"/>
    </edge>
    <edge id=":J13_5" function="internal">
        <lane id=":J13_5_0" index="0" disallow="pedestrian" speed="30.00" length="21.13" shape="-410.40,-395.20 -404.29,-395.14 -399.84,-394.90 -395.43,-394.35 -389.39,-393.37"/>
    </edge>
    <edge id=":J13_6" function="internal">
        <lane id=":J13_6_0" index="0" disallow="pedestrian" speed="8.25" length="15.13" shape="-410.40,-398.40 -406.55,-397.78 -403.80,-395.91 -402.15,-392.80 -401.60,-388.45"/>
    </edge>
    <edge id=":J13_7" function="internal">
        <lane id=":J13_7_0" index="0" disallow="pedestrian" speed="30.00" length="21.66" shape="-410.40,-398.40 -404.20,-398.34 -399.58,-398.08 -394.99,-397.51 -388.87,-396.52"/>
    </edge>
    <edge id=":J14_0" function="internal">
        <lane id=":J14_0_0" index="0" disallow="pedestrian" speed="10.36" length="24.51" shape="-704.80,-410.40 -703.85,-403.75 -701.00,-399.00 -696.25,-396.15 -689.60,-395.20"/>
    </edge>
    <edge id=":J14_1" function="internal">
        <lane id=":J14_1_0" index="0" disallow="pedestrian" speed="8.00" length="14.19" shape="-701.60,-410.40 -702.15,-406.55 -703.80,-403.80 -706.55,-402.15 -710.40,-401.60"/>
    </edge>
    <edge id=":J14_2" function="internal">
        <lane id=":J14_2_0" index="0" disallow="pedestrian" speed="30.00" length="20.80" shape="-689.60,-404.80 -710.40,-404.80"/>
    </edge>
    <edge id=":J14_3" function="internal">
        <lane id=":J14_3_0" index="0" disallow="pedestrian" speed="8.00" length="14.19" shape="-689.60,-401.60 -693.45,-402.15 -696.20,-403.80 -697.85,-406.55 -698.40,-410.40"/>
    </edge>
    <edge id=":J14_4" function="internal">
        <lane id=":J14_4_0" index="0" disallow="pedestrian" speed="30.00" length="20.80" shape="-689.60,-401.60 -710.40,-401.60"/>
    </edge>
    <edge id=":J14_5" function="internal">
        <lane id=":J14_5_0" index="0" disallow="pedestrian" speed="30.00" length="20.80" shape="-710.40,-395.20 -689.60,-395.20"/>
    </edge>
    <edge id=":J14_6" function="internal">
        <lane id=":J14_6_0" index="0" disallow="pedestrian" speed="10.36" length="24.51" shape="-710.40,-395.20 -703.75,-396.15 -699.00,-399.00 -696.15,-403.75 -695.20,-410.40"/>
    </edge>
    <edge id=":J14_7" function="internal">
        <lane id=":J14_7_0" index="0" disallow="pedestrian" speed="30.00" length="20.80" shape="-710.40,-398.40 -689.60,-398.40"/>
    </edge>
    <edge id=":J16_0" function="internal">
        <lane id=":J16_0_0" index="0" disallow="pedestrian" speed="8.96" length="18.06" shape="-693.60,-704.80 -698.50,-704.10 -702.00,-702.00 -704.10,-698.50 -704.80,-693.60"/>
        <lane id=":J16_0_1" index="1" disallow="pedestrian" speed="7.66" length="12.90" shape="-693.60,-701.60 -697.10,-701.10 -699.60,-699.60 -701.10,-697.10 -701.60,-693.60"/>
    </edge>
    <edge id=":J16_2" function="internal">
        <lane id=":J16_2_0" index="0" disallow="pedestrian" speed="3.90" length="2.58" shape="-695.20,-693.60 -695.10,-694.30 -694.80,-694.80 -694.30,-695.10 -693.60,-695.20"/>
        <lane id=":J16_2_1" index="1" disallow="pedestrian" speed="6.08" length="7.74" shape="-698.40,-693.60 -698.10,-695.70 -697.20,-697.20 -695.70,-698.10 -693.60,-698.40"/>
    </edge>
    <edge id=":J2_0" function="internal">
        <lane id=":J2_0_0" index="0" disallow="pedestrian" speed="30.00" length="20.80" shape="195.20,89.60 195.20,110.40"/>
    </edge>
    <edge id=":J2_1" function="internal">
        <lane id=":J2_1_0" index="0" disallow="pedestrian" speed="10.10" length="5.43" shape="195.20,89.60 196.53,94.86"/>
    </edge>
    <edge id=":J2_2" function="internal">
        <lane id=":J2_2_0" index="0" disallow="pedestrian" speed="8.00" length="14.19" shape="198.40,89.60 197.85,93.45 196.20,96.20 193.45,97.85 189.60,98.40"/>
    </edge>
    <edge id=":J2_3" function="internal">
        <lane id=":J2_3_0" index="0" disallow="pedestrian" speed="30.00" length="20.80" shape="198.40,89.60 198.40,110.40"/>
    </edge>
    <edge id=":J2_16" function="internal">
        <lane id=":J2_16_0" index="0" disallow="pedestrian" speed="10.10" length="17.79" shape="196.53,94.86 196.57,95.00 200.11,99.89 205.00,103.43 210.40,104.80"/>
    </edge>
    <edge id=":J2_4" function="internal">
        <lane id=":J2_4_0" index="0" disallow="pedestrian" speed="30.00" length="20.80" shape="210.40,95.20 189.60,95.20"/>
    </edge>
    <edge id=":J2_5" function="internal">
        <lane id=":J2_5_0" index="0" disallow="pedestrian" speed="10.10" length="23.22" shape="210.40,95.20 205.00,96.57 200.11,100.11 196.57,105.00 195.20,110.40"/>
    </edge>
    <edge id=":J2_6" function="internal">
        <lane id=":J2_6_0" index="0" disallow="pedestrian" speed="8.00" length="14.19" shape="210.40,98.40 206.55,97.85 203.80,96.20 202.15,93.45 201.60,89.60"/>
    </edge>
    <edge id=":J2_7" function="internal">
        <lane id=":J2_7_0" index="0" disallow="pedestrian" speed="30.00" length="20.80" shape="210.40,98.40 189.60,98.40"/>
    </edge>
    <edge id=":J2_8" function="internal">
        <lane id=":J2_8_0" index="0" disallow="pedestrian" speed="30.00" length="20.80" shape="204.80,110.40 204.80,89.60"/>
    </edge>
    <edge id=":J2_9" function="internal">
        <lane id=":J2_9_0" index="0" disallow="pedestrian" speed="10.10" length="5.43" shape="204.80,110.40 203.47,105.14"/>
    </edge>
    <edge id=":J2_10" function="internal">
        <lane id=":J2_10_0" index="0" disallow="pedestrian" speed="8.00" length="14.19" shape="201.60,110.40 202.15,106.55 203.80,103.80 206.55,102.15 210.40,101.60"/>
    </edge>
    <edge id=":J2_11" function="internal">
        <lane id=":J2_11_0" index="0" disallow="pedestrian" speed="30.00" length="20.80" shape="201.60,110.40 201.60,89.60"/>
    </edge>
    <edge id=":J2_17" function="internal">
        <lane id=":J2_17_0" index="0" disallow="pedestrian" speed="10.10" length="17.79" shape="203.47,105.14 203.43,105.00 199.89,100.11 195.00,96.57 189.60,95.20"/>
    </edge>
    <edge id=":J2_12" function="internal">
        <lane id=":J2_12_0" index="0" disallow="pedestrian" speed="30.00" length="20.80" shape="189.60,104.80 210.40,104.80"/>
    </edge>
    <edge id=":J2_13" function="internal">
        <lane id=":J2_13_0" index="0" disallow="pedestrian" speed="10.10" length="23.22" shape="189.60,104.80 195.00,103.43 199.89,99.89 203.43,95.00 204.80,89.60"/>
    </edge>
    <edge id=":J2_14" function="internal">
        <lane id=":J2_14_0" index="0" disallow="pedestrian" speed="8.00" length="14.19" shape="189.60,101.60 193.45,102.15 196.20,103.80 197.85,106.55 198.40,110.40"/>
    </edge>
    <edge id=":J2_15" function="internal">
        <lane id=":J2_15_0" index="0" disallow="pedestrian" speed="30.00" length="20.80" shape="189.60,101.60 210.40,101.60"/>
    </edge>
    <edge id=":J3_0" function="internal">
        <lane id=":J3_0_0" index="0" disallow="pedestrian" speed="30.00" length="20.80" shape="895.20,89.60 895.20,110.40"/>
    </edge>
    <edge id=":J3_1" function="internal">
        <lane id=":J3_1_0" index="0" disallow="pedestrian" speed="10.10" length="5.43" shape="895.20,89.60 896.53,94.86"/>
    </edge>
    <edge id=":J3_2" function="internal">
        <lane id=":J3_2_0" index="0" disallow="pedestrian" speed="8.00" length="14.19" shape="898.40,89.60 897.85,93.45 896.20,96.20 893.45,97.85 889.60,98.40"/>
    </edge>
    <edge id=":J3_3" function="internal">
        <lane id=":J3_3_0" index="0" disallow="pedestrian" speed="30.00" length="20.80" shape="898.40,89.60 898.40,110.40"/>
    </edge>
    <edge id=":J3_16" function="internal">
        <lane id=":J3_16_0" index="0" disallow="pedestrian" speed="10.10" length="17.79" shape="896.53,94.86 896.57,95.00 900.11,99.89 905.00,103.43 910.40,104.80"/>
    </edge>
    <edge id=":J3_4" function="internal">
        <lane id=":J3_4_0" index="0" disallow="pedestrian" speed="30.00" length="20.80" shape="910.40,95.20 889.60,95.20"/>
    </edge>
    <edge id=":J3_5" function="internal">
        <lane id=":J3_5_0" index="0" disallow="pedestrian" speed="10.10" length="23.22" shape="910.40,95.20 905.00,96.57 900.11,100.11 896.57,105.00 895.20,110.40"/>
    </edge>
    <edge id=":J3_6" function="internal">
        <lane id=":J3_6_0" index="0" disallow="pedestrian" speed="8.00" length="14.19" shape="910.40,98.40 906.55,97.85 903.80,96.20 902.15,93.45 901.60,89.60"/>
    </edge>
    <edge id=":J3_7" function="internal">
        <lane id=":J3_7_0" index="0" disallow="pedestrian" speed="30.00" length="20.80" shape="910.40,98.40 889.60,98.40"/>
    </edge>
    <edge id=":J3_8" function="internal">
        <lane id=":J3_8_0" index="0" disallow="pedestrian" speed="30.00" length="20.80" shape="904.80,110.40 904.80,89.60"/>
    </edge>
    <edge id=":J3_9" function="internal">
        <lane id=":J3_9_0" index="0" disallow="pedestrian" speed="10.10" length="5.43" shape="904.80,110.40 903.47,105.14"/>
    </edge>
    <edge id=":J3_10" function="internal">
        <lane id=":J3_10_0" index="0" disallow="pedestrian" speed="8.00" length="14.19" shape="901.60,110.40 902.15,106.55 903.80,103.80 906.55,102.15 910.40,101.60"/>
    </edge>
    <edge id=":J3_11" function="internal">
        <lane id=":J3_11_0" index="0" disallow="pedestrian" speed="30.00" length="20.80" shape="901.60,110.40 901.60,89.60"/>
    </edge>
    <edge id=":J3_17" function="internal">
        <lane id=":J3_17_0" index="0" disallow="pedestrian" speed="10.10" length="17.79" shape="903.47,105.14 903.43,105.00 899.89,100.11 895.00,96.57 889.60,95.20"/>
    </edge>
    <edge id=":J3_12" function="internal">
        <lane id=":J3_12_0" index="0" disallow="pedestrian" speed="30.00" length="20.80" shape="889.60,104.80 910.40,104.80"/>
    </edge>
    <edge id=":J3_13" function="internal">
        <lane id=":J3_13_0" index="0" disallow="pedestrian" speed="10.10" length="23.22" shape="889.60,104.80 895.00,103.43 899.89,99.89 903.43,95.00 904.80,89.60"/>
    </edge>
    <edge id=":J3_14" function="internal">
        <lane id=":J3_14_0" index="0" disallow="pedestrian" speed="8.00" length="14.19" shape="889.60,101.60 893.45,102.15 896.20,103.80 897.85,106.55 898.40,110.40"/>
    </edge>
    <edge id=":J3_15" function="internal">
        <lane id=":J3_15_0" index="0" disallow="pedestrian" speed="30.00" length="20.80" shape="889.60,101.60 910.40,101.60"/>
    </edge>
    <edge id=":J5_0" function="internal">
        <lane id=":J5_0_0" index="0" disallow="pedestrian" speed="30.00" length="20.80" shape="895.20,-310.40 895.20,-289.60"/>
    </edge>
    <edge id=":J5_1" function="internal">
        <lane id=":J5_1_0" index="0" disallow="pedestrian" speed="10.10" length="5.43" shape="895.20,-310.40 896.53,-305.14"/>
    </edge>
    <edge id=":J5_2" function="internal">
        <lane id=":J5_2_0" index="0" disallow="pedestrian" speed="8.00" length="14.19" shape="898.40,-310.40 897.85,-306.55 896.20,-303.80 893.45,-302.15 889.60,-301.60"/>
    </edge>
    <edge id=":J5_3" function="internal">
        <lane id=":J5_3_0" index="0" disallow="pedestrian" speed="30.00" length="20.80" shape="898.40,-310.40 898.40,-289.60"/>
    </edge>
    <edge id=":J5_16" function="internal">
        <lane id=":J5_16_0" index="0" disallow="pedestrian" speed="10.10" length="17.79" shape="896.53,-305.14 896.57,-305.00 900.11,-300.11 905.00,-296.57 910.40,-295.20"/>
    </edge>
    <edge id=":J5_4" function="internal">
        <lane id=":J5_4_0" index="0" disallow="pedestrian" speed="30.00" length="20.80" shape="910.40,-304.80 889.60,-304.80"/>
    </edge>
    <edge id=":J5_5" function="internal">
        <lane id=":J5_5_0" index="0" disallow="pedestrian" speed="10.10" length="23.22" shape="910.40,-304.80 905.00,-303.43 900.11,-299.89 896.57,-295.00 895.20,-289.60"/>
    </edge>
    <edge id=":J5_6" function="internal">
        <lane id=":J5_6_0" index="0" disallow="pedestrian" speed="8.00" length="14.19" shape="910.40,-301.60 906.55,-302.15 903.80,-303.80 902.15,-306.55 901.60,-310.40"/>
    </edge>
    <edge id=":J5_7" function="internal">
        <lane id=":J5_7_0" index="0" disallow="pedestrian" speed="30.00" length="20.80" shape="910.40,-301.60 889.60,-301.60"/>
    </edge>
    <edge id=":J5_8" function="internal">
        <lane id=":J5_8_0" index="0" disallow="pedestrian" speed="30.00" length="20.80" shape="904.80,-289.60 904.80,-310.40"/>
    </edge>
    <edge id=":J5_9" function="internal">
        <lane id=":J5_9_0" index="0" disallow="pedestrian" speed="10.10" length="5.43" shape="904.80,-289.60 903.47,-294.86"/>
    </edge>
    <edge id=":J5_10" function="internal">
        <lane id=":J5_10_0" index="0" disallow="pedestrian" speed="8.00" length="14.19" shape="901.60,-289.60 902.15,-293.45 903.80,-296.20 906.55,-297.85 910.40,-298.40"/>
    </edge>
    <edge id=":J5_11" function="internal">
        <lane id=":J5_11_0" index="0" disallow="pedestrian" speed="30.00" length="20.80" shape="901.60,-289.60 901.60,-310.40"/>
    </edge>
    <edge id=":J5_17" function="internal">
        <lane id=":J5_17_0" index="0" disallow="pedestrian" speed="10.10" length="17.79" shape="903.47,-294.86 903.43,-295.00 899.89,-299.89 895.00,-303.43 889.60,-304.80"/>
    </edge>
    <edge id=":J5_12" function="internal">
        <lane id=":J5_12_0" index="0" disallow="pedestrian" speed="30.00" length="20.80" shape="889.60,-295.20 910.40,-295.20"/>
    </edge>
    <edge id=":J5_13" function="internal">
        <lane id=":J5_13_0" index="0" disallow="pedestrian" speed="10.10" length="23.22" shape="889.60,-295.20 895.00,-296.57 899.89,-300.11 903.43,-305.00 904.80,-310.40"/>
    </edge>
    <edge id=":J5_14" function="internal">
        <lane id=":J5_14_0" index="0" disallow="pedestrian" speed="8.00" length="14.19" shape="889.60,-298.40 893.45,-297.85 896.20,-296.20 897.85,-293.45 898.40,-289.60"/>
    </edge>
    <edge id=":J5_15" function="internal">
        <lane id=":J5_15_0" index="0" disallow="pedestrian" speed="30.00" length="20.80" shape="889.60,-298.40 910.40,-298.40"/>
    </edge>
    <edge id=":J6_0" function="internal">
        <lane id=":J6_0_0" index="0" disallow="pedestrian" speed="30.00" length="20.80" shape="895.20,-710.40 895.20,-689.60"/>
    </edge>
    <edge id=":J6_1" function="internal">
        <lane id=":J6_1_0" index="0" disallow="pedestrian" speed="10.10" length="5.43" shape="895.20,-710.40 896.53,-705.14"/>
    </edge>
    <edge id=":J6_2" function="internal">
        <lane id=":J6_2_0" index="0" disallow="pedestrian" speed="8.00" length="14.19" shape="898.40,-710.40 897.85,-706.55 896.20,-703.80 893.45,-702.15 889.60,-701.60"/>
    </edge>
    <edge id=":J6_3" function="internal">
        <lane id=":J6_3_0" index="0" disallow="pedestrian" speed="30.00" length="20.80" shape="898.40,-710.40 898.40,-689.60"/>
    </edge>
    <edge id=":J6_16" function="internal">
        <lane id=":J6_16_0" index="0" disallow="pedestrian" speed="10.10" length="17.79" shape="896.53,-705.14 896.57,-705.00 900.11,-700.11 905.00,-696.57 910.40,-695.20"/>
    </edge>
    <edge id=":J6_4" function="internal">
        <lane id=":J6_4_0" index="0" disallow="pedestrian" speed="30.00" length="20.80" shape="910.40,-704.80 889.60,-704.80"/>
    </edge>
    <edge id=":J6_5" function="internal">
        <lane id=":J6_5_0" index="0" disallow="pedestrian" speed="10.10" length="23.22" shape="910.40,-704.80 905.00,-703.43 900.11,-699.89 896.57,-695.00 895.20,-689.60"/>
    </edge>
    <edge id=":J6_6" function="internal">
        <lane id=":J6_6_0" index="0" disallow="pedestrian" speed="8.00" length="14.19" shape="910.40,-701.60 906.55,-702.15 903.80,-703.80 902.15,-706.55 901.60,-710.40"/>
    </edge>
    <edge id=":J6_7" function="internal">
        <lane id=":J6_7_0" index="0" disallow="pedestrian" speed="30.00" length="20.80" shape="910.40,-701.60 889.60,-701.60"/>
    </edge>
    <edge id=":J6_8" function="internal">
        <lane id=":J6_8_0" index="0" disallow="pedestrian" speed="30.00" length="20.80" shape="904.80,-689.60 904.80,-710.40"/>
    </edge>
    <edge id=":J6_9" function="internal">
        <lane id=":J6_9_0" index="0" disallow="pedestrian" speed="10.10" length="5.43" shape="904.80,-689.60 903.47,-694.86"/>
    </edge>
    <edge id=":J6_10" function="internal">
        <lane id=":J6_10_0" index="0" disallow="pedestrian" speed="8.00" length="14.19" shape="901.60,-689.60 902.15,-693.45 903.80,-696.20 906.55,-697.85 910.40,-698.40"/>
    </edge>
    <edge id=":J6_11" function="internal">
        <lane id=":J6_11_0" index="0" disallow="pedestrian" speed="30.00" length="20.80" shape="901.60,-689.60 901.60,-710.40"/>
    </edge>
    <edge id=":J6_17" function="internal">
        <lane id=":J6_17_0" index="0" disallow="pedestrian" speed="10.10" length="17.79" shape="903.47,-694.86 903.43,-695.00 899.89,-699.89 895.00,-703.43 889.60,-704.80"/>
    </edge>
    <edge id=":J6_12" function="internal">
        <lane id=":J6_12_0" index="0" disallow="pedestrian" speed="30.00" length="20.80" shape="889.60,-695.20 910.40,-695.20"/>
    </edge>
    <edge id=":J6_13" function="internal">
        <lane id=":J6_13_0" index="0" disallow="pedestrian" speed="10.10" length="23.22" shape="889.60,-695.20 895.00,-696.57 899.89,-700.11 903.43,-705.00 904.80,-710.40"/>
    </edge>
    <edge id=":J6_14" function="internal">
        <lane id=":J6_14_0" index="0" disallow="pedestrian" speed="8.00" length="14.19" shape="889.60,-698.40 893.45,-697.85 896.20,-696.20 897.85,-693.45 898.40,-689.60"/>
    </edge>
    <edge id=":J6_15" function="internal">
        <lane id=":J6_15_0" index="0" disallow="pedestrian" speed="30.00" length="20.80" shape="889.60,-698.40 910.40,-698.40"/>
    </edge>
    <edge id=":J9_0" function="internal">
        <lane id=":J9_0_0" index="0" disallow="pedestrian" speed="30.00" length="20.80" shape="195.20,-710.40 195.20,-689.60"/>
    </edge>
    <edge id=":J9_1" function="internal">
        <lane id=":J9_1_0" index="0" disallow="pedestrian" speed="10.10" length="5.43" shape="195.20,-710.40 196.53,-705.14"/>
    </edge>
    <edge id=":J9_2" function="internal">
        <lane id=":J9_2_0" index="0" disallow="pedestrian" speed="8.00" length="14.19" shape="198.40,-710.40 197.85,-706.55 196.20,-703.80 193.45,-702.15 189.60,-701.60"/>
    </edge>
    <edge id=":J9_3" function="internal">
        <lane id=":J9_3_0" index="0" disallow="pedestrian" speed="30.00" length="20.80" shape="198.40,-710.40 198.40,-689.60"/>
    </edge>
    <edge id=":J9_16" function="internal">
        <lane id=":J9_16_0" index="0" disallow="pedestrian" speed="10.10" length="17.79" shape="196.53,-705.14 196.57,-705.00 200.11,-700.11 205.00,-696.57 210.40,-695.20"/>
    </edge>
    <edge id=":J9_4" function="internal">
        <lane id=":J9_4_0" index="0" disallow="pedestrian" speed="30.00" length="20.80" shape="210.40,-704.80 189.60,-704.80"/>
    </edge>
    <edge id=":J9_5" function="internal">
        <lane id=":J9_5_0" index="0" disallow="pedestrian" speed="10.10" length="23.22" shape="210.40,-704.80 205.00,-703.43 200.11,-699.89 196.57,-695.00 195.20,-689.60"/>
    </edge>
    <edge id=":J9_6" function="internal">
        <lane id=":J9_6_0" index="0" disallow="pedestrian" speed="8.00" length="14.19" shape="210.40,-701.60 206.55,-702.15 203.80,-703.80 202.15,-706.55 201.60,-710.40"/>
    </edge>
    <edge id=":J9_7" function="internal">
        <lane id=":J9_7_0" index="0" disallow="pedestrian" speed="30.00" length="20.80" shape="210.40,-701.60 189.60,-701.60"/>
    </edge>
    <edge id=":J9_8" function="internal">
        <lane id=":J9_8_0" index="0" disallow="pedestrian" speed="30.00" length="20.80" shape="204.80,-689.60 204.80,-710.40"/>
    </edge>
    <edge id=":J9_9" function="internal">
        <lane id=":J9_9_0" index="0" disallow="pedestrian" speed="10.10" length="5.43" shape="204.80,-689.60 203.47,-694.86"/>
    </edge>
    <edge id=":J9_10" function="internal">