<?xml version="1.0" encoding="UTF-8"?>

<!-- generated on 2023-08-07 18:48:48 by Eclipse SUMO netedit Version 1.18.0
<configuration xmlns:xsi="http://www.w3.org/2001/XMLSchema-instance" xsi:noNamespaceSchemaLocation="http://sumo.dlr.de/xsd/neteditConfiguration.xsd">

    <input>
        <sumo-net-file value="C:\Users\LEGION\Desktop\project_sumo_files\road_network.net.xml"/>
    </input>

    <output>
        <output-file value="C:\Users\LEGION\Desktop\project_sumo_files\road_network.net.xml"/>
    </output>

    <processing>
        <geometry.min-radius.fix.railways value="false"/>
        <geometry.max-grade.fix value="false"/>
        <offset.disable-normalization value="true"/>
        <lefthand value="0"/>
    </processing>

    <junctions>
        <no-turnarounds value="true"/>
        <junctions.corner-detail value="5"/>
        <junctions.limit-turn-speed value="5.50"/>
        <rectangular-lane-cut value="0"/>
    </junctions>

    <pedestrian>
        <walkingareas value="0"/>
    </pedestrian>

</configuration>
-->

<net version="1.16" junctionCornerDetail="5" limitTurnSpeed="5.50" xmlns:xsi="http://www.w3.org/2001/XMLSchema-instance" xsi:noNamespaceSchemaLocation="http://sumo.dlr.de/xsd/net_file.xsd">

    <location netOffset="0.00,0.00" convBoundary="-800.00,-800.00,1000.00,200.00" origBoundary="-10000000000.00,-10000000000.00,10000000000.00,10000000000.00" projParameter="!"/>

    <edge id=":J1_0" function="internal">
        <lane id=":J1_0_0" index="0" disallow="pedestrian" speed="6.51" length="9.03" shape="-404.80,110.40 -405.15,107.95 -406.20,106.20 -407.95,105.15 -410.40,104.80"/>
    </edge>
    <edge id=":J1_1" function="internal">
        <lane id=":J1_1_0" index="0" disallow="pedestrian" speed="30.00" length="20.80" shape="-404.80,110.40 -404.80,89.60"/>
        <lane id=":J1_1_1" index="1" disallow="pedestrian" speed="30.00" length="20.80" shape="-401.60,110.40 -401.60,89.60"/>
    </edge>
    <edge id=":J1_3" function="internal">
        <lane id=":J1_3_0" index="0" disallow="pedestrian" speed="9.26" length="5.01" shape="-401.60,110.40 -400.89,105.44"/>
    </edge>
    <edge id=":J1_16" function="internal">
        <lane id=":J1_16_0" index="0" disallow="pedestrian" speed="9.26" length="14.34" shape="-400.89,105.44 -400.85,105.15 -398.60,101.40 -394.85,99.15 -389.60,98.40"/>
    </edge>
    <edge id=":J1_4" function="internal">
        <lane id=":J1_4_0" index="0" disallow="pedestrian" speed="6.51" length="9.03" shape="-389.60,104.80 -392.05,105.15 -393.80,106.20 -394.85,107.95 -395.20,110.40"/>
    </edge>
    <edge id=":J1_5" function="internal">
        <lane id=":J1_5_0" index="0" disallow="pedestrian" speed="30.00" length="20.80" shape="-389.60,104.80 -410.40,104.80"/>
        <lane id=":J1_5_1" index="1" disallow="pedestrian" speed="30.00" length="20.80" shape="-389.60,101.60 -410.40,101.60"/>
    </edge>
    <edge id=":J1_7" function="internal">
        <lane id=":J1_7_0" index="0" disallow="pedestrian" speed="9.26" length="5.01" shape="-389.60,101.60 -394.56,100.89"/>
    </edge>
    <edge id=":J1_17" function="internal">
        <lane id=":J1_17_0" index="0" disallow="pedestrian" speed="9.26" length="14.34" shape="-394.56,100.89 -394.85,100.85 -398.60,98.60 -400.85,94.85 -401.60,89.60"/>
    </edge>
    <edge id=":J1_8" function="internal">
        <lane id=":J1_8_0" index="0" disallow="pedestrian" speed="6.51" length="9.03" shape="-395.20,89.60 -394.85,92.05 -393.80,93.80 -392.05,94.85 -389.60,95.20"/>
    </edge>
    <edge id=":J1_9" function="internal">
        <lane id=":J1_9_0" index="0" disallow="pedestrian" speed="30.00" length="20.80" shape="-395.20,89.60 -395.20,110.40"/>
        <lane id=":J1_9_1" index="1" disallow="pedestrian" speed="30.00" length="20.80" shape="-398.40,89.60 -398.40,110.40"/>
    </edge>
    <edge id=":J1_11" function="internal">
        <lane id=":J1_11_0" index="0" disallow="pedestrian" speed="9.26" length="5.01" shape="-398.40,89.60 -399.11,94.56"/>
    </edge>
    <edge id=":J1_18" function="internal">
        <lane id=":J1_18_0" index="0" disallow="pedestrian" speed="9.26" length="14.34" shape="-399.11,94.56 -399.15,94.85 -401.40,98.60 -405.15,100.85 -410.40,101.60"/>
    </edge>
    <edge id=":J1_12" function="internal">
        <lane id=":J1_12_0" index="0" disallow="pedestrian" speed="6.51" length="9.03" shape="-410.40,95.20 -407.95,94.85 -406.20,93.80 -405.15,92.05 -404.80,89.60"/>
    </edge>
    <edge id=":J1_13" function="internal">
        <lane id=":J1_13_0" index="0" disallow="pedestrian" speed="30.00" length="20.80" shape="-410.40,95.20 -389.60,95.20"/>
        <lane id=":J1_13_1" index="1" disallow="pedestrian" speed="30.00" length="20.80" shape="-410.40,98.40 -389.60,98.40"/>
    </edge>
    <edge id=":J1_15" function="internal">
        <lane id=":J1_15_0" index="0" disallow="pedestrian" speed="9.26" length="5.01" shape="-410.40,98.40 -405.44,99.11"/>
    </edge>
    <edge id=":J1_19" function="internal">
        <lane id=":J1_19_0" index="0" disallow="pedestrian" speed="9.26" length="14.34" shape="-405.44,99.11 -405.15,99.15 -401.40,101.40 -399.15,105.15 -398.40,110.40"/>
    </edge>
    <edge id=":J10_0" function="internal">
        <lane id=":J10_0_0" index="0" disallow="pedestrian" speed="7.77" length="11.65" shape="195.20,-289.60 194.74,-292.45 193.35,-294.66 191.04,-296.23 187.81,-297.16"/>
    </edge>
    <edge id=":J10_1" function="internal">
        <lane id=":J10_1_0" index="0" disallow="pedestrian" speed="30.00" length="21.95" shape="195.20,-289.60 195.20,-311.55"/>
        <lane id=":J10_1_1" index="1" disallow="pedestrian" speed="30.00" length="21.95" shape="198.40,-289.60 198.40,-311.55"/>
    </edge>
    <edge id=":J10_3" function="internal">
        <lane id=":J10_3_0" index="0" disallow="pedestrian" speed="9.26" length="5.01" shape="198.40,-289.60 199.11,-294.56"/>
    </edge>
    <edge id=":J10_16" function="internal">
        <lane id=":J10_16_0" index="0" disallow="pedestrian" speed="9.26" length="14.34" shape="199.11,-294.56 199.15,-294.85 201.40,-298.60 205.15,-300.85 210.40,-301.60"/>
    </edge>
    <edge id=":J10_4" function="internal">
        <lane id=":J10_4_0" index="0" disallow="pedestrian" speed="6.51" length="9.03" shape="210.40,-295.20 207.95,-294.85 206.20,-293.80 205.15,-292.05 204.80,-289.60"/>
    </edge>
    <edge id=":J10_5" function="internal">
        <lane id=":J10_5_0" index="0" disallow="pedestrian" speed="30.00" length="22.45" shape="210.40,-295.20 204.04,-295.28 199.06,-295.57 194.10,-296.16 187.81,-297.16"/>
        <lane id=":J10_5_1" index="1" disallow="pedestrian" speed="30.00" length="22.45" shape="210.40,-298.40 204.12,-298.47 199.32,-298.74 194.54,-299.33 188.34,-300.32"/>
    </edge>
    <edge id=":J10_7" function="internal">
        <lane id=":J10_7_0" index="0" disallow="pedestrian" speed="9.47" length="4.90" shape="210.40,-298.40 205.56,-299.16"/>
    </edge>
    <edge id=":J10_17" function="internal">
        <lane id=":J10_17_0" index="0" disallow="pedestrian" speed="9.47" length="15.39" shape="205.56,-299.16 205.15,-299.22 201.40,-301.69 199.15,-305.80 198.40,-311.55"/>
    </edge>
    <edge id=":J10_8" function="internal">
        <lane id=":J10_8_0" index="0" disallow="pedestrian" speed="6.81" length="9.98" shape="204.80,-311.55 205.15,-308.60 206.20,-306.49 207.95,-305.22 210.40,-304.80"/>
    </edge>
    <edge id=":J10_9" function="internal">
        <lane id=":J10_9_0" index="0" disallow="pedestrian" speed="30.00" length="21.95" shape="204.80,-311.55 204.80,-289.60"/>
        <lane id=":J10_9_1" index="1" disallow="pedestrian" speed="30.00" length="21.95" shape="201.60,-311.55 201.60,-289.60"/>
    </edge>
    <edge id=":J10_11" function="internal">
        <lane id=":J10_11_0" index="0" disallow="pedestrian" speed="9.03" length="4.97" shape="201.60,-311.55 200.89,-306.64"/>
    </edge>
    <edge id=":J10_18" function="internal">
        <lane id=":J10_18_0" index="0" disallow="pedestrian" speed="9.03" length="15.70" shape="200.89,-306.64 200.77,-305.81 198.28,-302.02 194.14,-300.19 188.34,-300.32"/>
    </edge>
    <edge id=":J10_12" function="internal">
        <lane id=":J10_12_0" index="0" disallow="pedestrian" speed="6.18" length="9.05" shape="189.39,-306.63 191.93,-306.58 193.75,-307.38 194.84,-309.04 195.20,-311.55"/>
    </edge>
    <edge id=":J10_13" function="internal">
        <lane id=":J10_13_0" index="0" disallow="pedestrian" speed="30.00" length="21.39" shape="189.39,-306.63 195.43,-305.65 199.84,-305.10 204.29,-304.86 210.40,-304.80"/>
        <lane id=":J10_13_1" index="1" disallow="pedestrian" speed="30.00" length="21.39" shape="188.87,-303.48 194.99,-302.49 199.58,-301.92 204.20,-301.66 210.40,-301.60"/>
    </edge>
    <edge id=":J10_15" function="internal">
        <lane id=":J10_15_0" index="0" disallow="pedestrian" speed="10.21" length="5.41" shape="188.87,-303.48 194.05,-301.93"/>
    </edge>
    <edge id=":J10_19" function="internal">
        <lane id=":J10_19_0" index="0" disallow="pedestrian" speed="10.21" length="15.37" shape="194.05,-301.93 194.44,-301.81 198.42,-298.95 200.80,-294.88 201.60,-289.60"/>
    </edge>
    <edge id=":J13_0" function="internal">
        <lane id=":J13_0_0" index="0" disallow="pedestrian" speed="6.81" length="9.98" shape="-404.80,-388.45 -405.15,-391.40 -406.20,-393.51 -407.95,-394.78 -410.40,-395.20"/>
    </edge>
    <edge id=":J13_1" function="internal">
        <lane id=":J13_1_0" index="0" disallow="pedestrian" speed="9.03" length="20.67" shape="-401.60,-388.45 -400.77,-394.19 -398.28,-397.98 -394.14,-399.81 -388.34,-399.68"/>
    </edge>
    <edge id=":J13_2" function="internal">
        <lane id=":J13_2_0" index="0" disallow="pedestrian" speed="6.18" length="9.05" shape="-389.39,-393.37 -391.93,-393.42 -393.75,-392.62 -394.84,-390.96 -395.20,-388.45"/>
    </edge>
    <edge id=":J13_3" function="internal">
        <lane id=":J13_3_0" index="0" disallow="pedestrian" speed="30.00" length="21.39" shape="-389.39,-393.37 -395.43,-394.35 -399.84,-394.90 -404.29,-395.14 -410.40,-395.20"/>
        <lane id=":J13_3_1" index="1" disallow="pedestrian" speed="30.00" length="21.39" shape="-388.87,-396.52 -394.99,-397.51 -399.58,-398.08 -404.20,-398.34 -410.40,-398.40"/>
    </edge>
    <edge id=":J13_5" function="internal">
        <lane id=":J13_5_0" index="0" disallow="pedestrian" speed="30.00" length="22.45" shape="-410.40,-404.80 -404.04,-404.72 -399.06,-404.43 -394.10,-403.84 -387.81,-402.84"/>
        <lane id=":J13_5_1" index="1" disallow="pedestrian" speed="30.00" length="22.45" shape="-410.40,-401.60 -404.12,-401.53 -399.32,-401.26 -394.54,-400.67 -388.34,-399.68"/>
    </edge>
    <edge id=":J13_7" function="internal">
        <lane id=":J13_7_0" index="0" disallow="pedestrian" speed="9.47" length="4.90" shape="-410.40,-401.60 -405.56,-400.84"/>
    </edge>
    <edge id=":J13_8" function="internal">
        <lane id=":J13_8_0" index="0" disallow="pedestrian" speed="9.47" length="15.39" shape="-405.56,-400.84 -405.15,-400.78 -401.40,-398.31 -399.15,-394.20 -398.40,-388.45"/>
    </edge>
    <edge id=":J14_0" function="internal">
        <lane id=":J14_0_0" index="0" disallow="pedestrian" speed="30.00" length="20.80" shape="-689.60,-395.20 -710.40,-395.20"/>
        <lane id=":J14_0_1" index="1" disallow="pedestrian" speed="30.00" length="20.80" shape="-689.60,-398.40 -710.40,-398.40"/>
    </edge>
    <edge id=":J14_2" function="internal">
        <lane id=":J14_2_0" index="0" disallow="pedestrian" speed="9.26" length="5.01" shape="-689.60,-398.40 -694.56,-399.11"/>
    </edge>
    <edge id=":J14_8" function="internal">
        <lane id=":J14_8_0" index="0" disallow="pedestrian" speed="9.26" length="14.34" shape="-694.56,-399.11 -694.85,-399.15 -698.60,-401.40 -700.85,-405.15 -701.60,-410.40"/>
    </edge>
    <edge id=":J14_3" function="internal">
        <lane id=":J14_3_0" index="0" disallow="pedestrian" speed="6.51" length="9.03" shape="-695.20,-410.40 -694.85,-407.95 -693.80,-406.20 -692.05,-405.15 -689.60,-404.80"/>
    </edge>
    <edge id=":J14_4" function="internal">
        <lane id=":J14_4_0" index="0" disallow="pedestrian" speed="9.26" length="19.35" shape="-698.40,-410.40 -699.15,-405.15 -701.40,-401.40 -705.15,-399.15 -710.40,-398.40"/>
    </edge>
    <edge id=":J14_5" function="internal">
        <lane id=":J14_5_0" index="0" disallow="pedestrian" speed="6.51" length="9.03" shape="-710.40,-404.80 -707.95,-405.15 -706.20,-406.20 -705.15,-407.95 -704.80,-410.40"/>
    </edge>
    <edge id=":J14_6" function="internal">
        <lane id=":J14_6_0" index="0" disallow="pedestrian" speed="30.00" length="20.80" shape="-710.40,-404.80 -689.60,-404.80"/>
        <lane id=":J14_6_1" index="1" disallow="pedestrian" speed="30.00" length="20.80" shape="-710.40,-401.60 -689.60,-401.60"/>
    </edge>
    <edge id=":J16_0" function="internal">
        <lane id=":J16_0_0" index="0" disallow="pedestrian" speed="8.96" length="18.06" shape="-704.80,-693.60 -704.10,-698.50 -702.00,-702.00 -698.50,-704.10 -693.60,-704.80"/>
        <lane id=":J16_0_1" index="1" disallow="pedestrian" speed="7.66" length="12.90" shape="-701.60,-693.60 -701.10,-697.10 -699.60,-699.60 -697.10,-701.10 -693.60,-701.60"/>
    </edge>
    <edge id=":J16_2" function="internal">
        <lane id=":J16_2_0" index="0" disallow="pedestrian" speed="3.90" length="2.58" shape="-693.60,-695.20 -694.30,-695.10 -694.80,-694.80 -695.10,-694.30 -695.20,-693.60"/>
        <lane id=":J16_2_1" index="1" disallow="pedestrian" speed="6.08" length="7.74" shape="-693.60,-698.40 -695.70,-698.10 -697.20,-697.20 -698.10,-695.70 -698.40,-693.60"/>
    </edge>
    <edge id=":J2_0" function="internal">
        <lane id=":J2_0_0" index="0" disallow="pedestrian" speed="6.51" length="9.03" shape="195.20,110.40 194.85,107.95 193.80,106.20 192.05,105.15 189.60,104.80"/>
    </edge>
    <edge id=":J2_1" function="internal">
        <lane id=":J2_1_0" index="0" disallow="pedestrian" speed="30.00" length="20.80" shape="195.20,110.40 195.20,89.60"/>
        <lane id=":J2_1_1" index="1" disallow="pedestrian" speed="30.00" length="20.80" shape="198.40,110.40 198.40,89.60"/>
    </edge>
    <edge id=":J2_3" function="internal">
        <lane id=":J2_3_0" index="0" disallow="pedestrian" speed="9.26" length="5.01" shape="198.40,110.40 199.11,105.44"/>
    </edge>
    <edge id=":J2_16" function="internal">
        <lane id=":J2_16_0" index="0" disallow="pedestrian" speed="9.26" length="14.34" shape="199.11,105.44 199.15,105.15 201.40,101.40 205.15,99.15 210.40,98.40"/>
    </edge>
    <edge id=":J2_4" function="internal">
        <lane id=":J2_4_0" index="0" disallow="pedestrian" speed="6.51" length="9.03" shape="210.40,104.80 207.95,105.15 206.20,106.20 205.15,107.95 204.80,110.40"/>
    </edge>
    <edge id=":J2_5" function="internal">
        <lane id=":J2_5_0" index="0" disallow="pedestrian" speed="30.00" length="20.80" shape="210.40,104.80 189.60,104.80"/>
        <lane id=":J2_5_1" index="1" disallow="pedestrian" speed="30.00" length="20.80" shape="210.40,101.60 189.60,101.60"/>
    </edge>
    <edge id=":J2_7" function="internal">
        <lane id=":J2_7_0" index="0" disallow="pedestrian" speed="9.26" length="5.01" shape="210.40,101.60 205.44,100.89"/>
    </edge>
    <edge id=":J2_17" function="internal">
        <lane id=":J2_17_0" index="0" disallow="pedestrian" speed="9.26" length="14.34" shape="205.44,100.89 205.15,100.85 201.40,98.60 199.15,94.85 198.40,89.60"/>
    </edge>
    <edge id=":J2_8" function="internal">
        <lane id=":J2_8_0" index="0" disallow="pedestrian" speed="6.51" length="9.03" shape="204.80,89.60 205.15,92.05 206.20,93.80 207.95,94.85 210.40,95.20"/>
    </edge>
    <edge id=":J2_9" function="internal">
        <lane id=":J2_9_0" index="0" disallow="pedestrian" speed="30.00" length="20.80" shape="204.80,89.60 204.80,110.40"/>
        <lane id=":J2_9_1" index="1" disallow="pedestrian" speed="30.00" length="20.80" shape="201.60,89.60 201.60,110.40"/>
    </edge>
    <edge id=":J2_11" function="internal">
        <lane id=":J2_11_0" index="0" disallow="pedestrian" speed="9.26" length="5.01" shape="201.60,89.60 200.89,94.56"/>
    </edge>
    <edge id=":J2_18" function="internal">
        <lane id=":J2_18_0" index="0" disallow="pedestrian" speed="9.26" length="14.34" shape="200.89,94.56 200.85,94.85 198.60,98.60 194.85,100.85 189.60,101.60"/>
    </edge>
    <edge id=":J2_12" function="internal">
        <lane id=":J2_12_0" index="0" disallow="pedestrian" speed="6.51" length="9.03" shape="189.60,95.20 192.05,94.85 193.80,93.80 194.85,92.05 195.20,89.60"/>
    </edge>
    <edge id=":J2_13" function="internal">
        <lane id=":J2_13_0" index="0" disallow="pedestrian" speed="30.00" length="20.80" shape="189.60,95.20 210.40,95.20"/>
        <lane id=":J2_13_1" index="1" disallow="pedestrian" speed="30.00" length="20.80" shape="189.60,98.40 210.40,98.40"/>
    </edge>
    <edge id=":J2_15" function="internal">
        <lane id=":J2_15_0" index="0" disallow="pedestrian" speed="9.26" length="5.01" shape="189.60,98.40 194.56,99.11"/>
    </edge>
    <edge id=":J2_19" function="internal">
        <lane id=":J2_19_0" index="0" disallow="pedestrian" speed="9.26" length="14.34" shape="194.56,99.11 194.85,99.15 198.60,101.40 200.85,105.15 201.60,110.40"/>
    </edge>
    <edge id=":J3_0" function="internal">
        <lane id=":J3_0_0" index="0" disallow="pedestrian" speed="6.51" length="9.03" shape="895.20,110.40 894.85,107.95 893.80,106.20 892.05,105.15 889.60,104.80"/>
    </edge>
    <edge id=":J3_1" function="internal">
        <lane id=":J3_1_0" index="0" disallow="pedestrian" speed="30.00" length="20.80" shape="895.20,110.40 895.20,89.60"/>
        <lane id=":J3_1_1" index="1" disallow="pedestrian" speed="30.00" length="20.80" shape="898.40,110.40 898.40,89.60"/>
    </edge>
    <edge id=":J3_3" function="internal">
        <lane id=":J3_3_0" index="0" disallow="pedestrian" speed="9.26" length="5.01" shape="898.40,110.40 899.11,105.44"/>
    </edge>
    <edge id=":J3_16" function="internal">
        <lane id=":J3_16_0" index="0" disallow="pedestrian" speed="9.26" length="14.34" shape="899.11,105.44 899.15,105.15 901.40,101.40 905.15,99.15 910.40,98.40"/>
    </edge>
    <edge id=":J3_4" function="internal">
        <lane id=":J3_4_0" index="0" disallow="pedestrian" speed="6.51" length="9.03" shape="910.40,104.80 907.95,105.15 906.20,106.20 905.15,107.95 904.80,110.40"/>
    </edge>
    <edge id=":J3_5" function="internal">
        <lane id=":J3_5_0" index="0" disallow="pedestrian" speed="30.00" length="20.80" shape="910.40,104.80 889.60,104.80"/>
        <lane id=":J3_5_1" index="1" disallow="pedestrian" speed="30.00" length="20.80" shape="910.40,101.60 889.60,101.60"/>
    </edge>
    <edge id=":J3_7" function="internal">
        <lane id=":J3_7_0" index="0" disallow="pedestrian" speed="9.26" length="5.01" shape="910.40,101.60 905.44,100.89"/>
    </edge>
    <edge id=":J3_17" function="internal">
        <lane id=":J3_17_0" index="0" disallow="pedestrian" speed="9.26" length="14.34" shape="905.44,100.89 905.15,100.85 901.40,98.60 899.15,94.85 898.40,89.60"/>
    </edge>
    <edge id=":J3_8" function="internal">
        <lane id=":J3_8_0" index="0" disallow="pedestrian" speed="6.51" length="9.03" shape="904.80,89.60 905.15,92.05 906.20,93.80 907.95,94.85 910.40,95.20"/>
    </edge>
    <edge id=":J3_9" function="internal">
        <lane id=":J3_9_0" index="0" disallow="pedestrian" speed="30.00" length="20.80" shape="904.80,89.60 904.80,110.40"/>
        <lane id=":J3_9_1" index="1" disallow="pedestrian" speed="30.00" length="20.80" shape="901.60,89.60 901.60,110.40"/>
    </edge>
    <edge id=":J3_11" function="internal">
        <lane id=":J3_11_0" index="0" disallow="pedestrian" speed="9.26" length="5.01" shape="901.60,89.60 900.89,94.56"/>
    </edge>
    <edge id=":J3_18" function="internal">
        <lane id=":J3_18_0" index="0" disallow="pedestrian" speed="9.26" length="14.34" shape="900.89,94.56 900.85,94.85 898.60,98.60 894.85,100.85 889.60,101.60"/>
    </edge>
    <edge id=":J3_12" function="internal">
        <lane id=":J3_12_0" index="0" disallow="pedestrian" speed="6.51" length="9.03" shape="889.60,95.20 892.05,94.85 893.80,93.80 894.85,92.05 895.20,89.60"/>
    </edge>
    <edge id=":J3_13" function="internal">
        <lane id=":J3_13_0" index="0" disallow="pedestrian" speed="30.00" length="20.80" shape="889.60,95.20 910.40,95.20"/>
        <lane id=":J3_13_1" index="1" disallow="pedestrian" speed="30.00" length="20.80" shape="889.60,98.40 910.40,98.40"/>
    </edge>
    <edge id=":J3_15" function="internal">
        <lane id=":J3_15_0" index="0" disallow="pedestrian" speed="9.26" length="5.01" shape="889.60,98.40 894.56,99.11"/>
    </edge>
    <edge id=":J3_19" function="internal">
        <lane id=":J3_19_0" index="0" disallow="pedestrian" speed="9.26" length="14.34" shape="894.56,99.11 894.85,99.15 898.60,101.40 900.85,105.15 901.60,110.40"/>
    </edge>
    <edge id=":J5_0" function="internal">
        <lane id=":J5_0_0" index="0" disallow="pedestrian" speed="6.51" length="9.03" shape="895.20,-289.60 894.85,-292.05 893.80,-293.80 892.05,-294.85 889.60,-295.20"/>
    </edge>
    <edge id=":J5_1" function="internal">
        <lane id=":J5_1_0" index="0" disallow="pedestrian" speed="30.00" length="20.80" shape="895.20,-289.60 895.20,-310.40"/>
        <lane id=":J5_1_1" index="1" disallow="pedestrian" speed="30.00" length="20.80" shape="898.40,-289.60 898.40,-310.40"/>
    </edge>
    <edge id=":J5_3" function="internal">
        <lane id=":J5_3_0" index="0" disallow="pedestrian" speed="9.26" length="5.01" shape="898.40,-289.60 899.11,-294.56"/>
    </edge>
    <edge id=":J5_16" function="internal">
        <lane id=":J5_16_0" index="0" disallow="pedestrian" speed="9.26" length="14.34" shape="899.11,-294.56 899.15,-294.85 901.40,-298.60 905.15,-300.85 910.40,-301.60"/>
    </edge>
    <edge id=":J5_4" function="internal">
        <lane id=":J5_4_0" index="0" disallow="pedestrian" speed="6.51" length="9.03" shape="910.40,-295.20 907.95,-294.85 906.20,-293.80 905.15,-292.05 904.80,-289.60"/>
    </edge>
    <edge id=":J5_5" function="internal">
        <lane id=":J5_5_0" index="0" disallow="pedestrian" speed="30.00" length="20.80" shape="910.40,-295.20 889.60,-295.20"/>
        <lane id=":J5_5_1" index="1" disallow="pedestrian" speed="30.00" length="20.80" shape="910.40,-298.40 889.60,-298.40"/>
    </edge>
    <edge id=":J5_7" function="internal">
        <lane id=":J5_7_0" index="0" disallow="pedestrian" speed="9.26" length="5.01" shape="910.40,-298.40 905.44,-299.11"/>
    </edge>
    <edge id=":J5_17" function="internal">
        <lane id=":J5_17_0" index="0" disallow="pedestrian" speed="9.26" length="14.34" shape="905.44,-299.11 905.15,-299.15 901.40,-301.40 899.15,-305.15 898.40,-310.40"/>
    </edge>
    <edge id=":J5_8" function="internal">
        <lane id=":J5_8_0" index="0" disallow="pedestrian" speed="6.51" length="9.03" shape="904.80,-310.40 905.15,-307.95 906.20,-306.20 907.95,-305.15 910.40,-304.80"/>
    </edge>
    <edge id=":J5_9" function="internal">
        <lane id=":J5_9_0" index="0" disallow="pedestrian" speed="30.00" length="20.80" shape="904.80,-310.40 904.80,-289.60"/>
        <lane id=":J5_9_1" index="1" disallow="pedestrian" speed="30.00" length="20.80" shape="901.60,-310.40 901.60,-289.60"/>
    </edge>
    <edge id=":J5_11" function="internal">
        <lane id=":J5_11_0" index="0" disallow="pedestrian" speed="9.26" length="5.01" shape="901.60,-310.40 900.89,-305.44"/>
    </edge>
    <edge id=":J5_18" function="internal">
        <lane id=":J5_18_0" index="0" disallow="pedestrian" speed="9.26" length="14.34" shape="900.89,-305.44 900.85,-305.15 898.60,-301.40 894.85,-299.15 889.60,-298.40"/>
    </edge>
    <edge id=":J5_12" function="internal">
        <lane id=":J5_12_0" index="0" disallow="pedestrian" speed="6.51" length="9.03" shape="889.60,-304.80 892.05,-305.15 893.80,-306.20 894.85,-307.95 895.20,-310.40"/>
    </edge>
    <edge id=":J5_13" function="internal">
        <lane id=":J5_13_0" index="0" disallow="pedestrian" speed="30.00" length="20.80" shape="889.60,-304.80 910.40,-304.80"/>
        <lane id=":J5_13_1" index="1" disallow="pedestrian" speed="30.00" length="20.80" shape="889.60,-301.60 910.40,-301.60"/>
    </edge>
    <edge id=":J5_15" function="internal">
        <lane id=":J5_15_0" index="0" disallow="pedestrian" speed="9.26" length="5.01" shape="889.60,-301.60 894.56,-300.89"/>
    </edge>
    <edge id=":J5_19" function="internal">
        <lane id=":J5_19_0" index="0" disallow="pedestrian" speed="9.26" length="14.34" shape="894.56,-300.89 894.85,-300.85 898.60,-298.60 900.85,-294.85 901.60,-289.60"/>
    </edge>
    <edge id=":J6_0" function="internal">
        <lane id=":J6_0_0" index="0" disallow="pedestrian" speed="6.51" length="9.03" shape="895.20,-689.60 894.85,-692.05 893.80,-693.80 892.05,-694.85 889.60,-695.20"/>
    </edge>
    <edge id=":J6_1" function="internal">
        <lane id=":J6_1_0" index="0" disallow="pedestrian" speed="30.00" length="20.80" shape="895.20,-689.60 895.20,-710.40"/>
        <lane id=":J6_1_1" index="1" disallow="pedestrian" speed="30.00" length="20.80" shape="898.40,-689.60 898.40,-710.40"/>
    </edge>
    <edge id=":J6_3" function="internal">
        <lane id=":J6_3_0" index="0" disallow="pedestrian" speed="9.26" length="5.01" shape="898.40,-689.60 899.11,-694.56"/>
    </edge>
    <edge id=":J6_16" function="internal">
        <lane id=":J6_16_0" index="0" disallow="pedestrian" speed="9.26" length="14.34" shape="899.11,-694.56 899.15,-694.85 901.40,-698.60 905.15,-700.85 910.40,-701.60"/>
    </edge>
    <edge id=":J6_4" function="internal">
        <lane id=":J6_4_0" index="0" disallow="pedestrian" speed="6.51" length="9.03" shape="910.40,-695.20 907.95,-694.85 906.20,-693.80 905.15,-692.05 904.80,-689.60"/>
    </edge>
    <edge id=":J6_5" function="internal">
        <lane id=":J6_5_0" index="0" disallow="pedestrian" speed="30.00" length="20.80" shape="910.40,-695.20 889.60,-695.20"/>
        <lane id=":J6_5_1" index="1" disallow="pedestrian" speed="30.00" length="20.80" shape="910.40,-698.40 889.60,-698.40"/>
    </edge>
    <edge id=":J6_7" function="internal">
        <lane id=":J6_7_0" index="0" disallow="pedestrian" speed="9.26" length="5.01" shape="910.40,-698.40 905.44,-699.11"/>
    </edge>
    <edge id=":J6_17" function="internal">
        <lane id=":J6_17_0" index="0" disallow="pedestrian" speed="9.26" length="14.34" shape="905.44,-699.11 905.15,-699.15 901.40,-701.40 899.15,-705.15 898.40,-710.40"/>
    </edge>
    <edge id=":J6_8" function="internal">
        <lane id=":J6_8_0" index="0" disallow="pedestrian" speed="6.51" length="9.03" shape="904.80,-710.40 905.15,-707.95 906.20,-706.20 907.95,-705.15 910.40,-704.80"/>
    </edge>
    <edge id=":J6_9" function="internal">
        <lane id=":J6_9_0" index="0" disallow="pedestrian" speed="30.00" length="20.80" shape="904.80,-710.40 904.80,-689.60"/>
        <lane id=":J6_9_1" index="1" disallow="pedestrian" speed="30.00" length="20.80" shape="901.60,-710.40 901.60,-689.60"/>
    </edge>
    <edge id=":J6_11" function="internal">
        <lane id=":J6_11_0" index="0" disallow="pedestrian" speed="9.26" length="5.01" shape="901.60,-710.40 900.89,-705.44"/>
    </edge>
    <edge id=":J6_18" function="internal">
        <lane id=":J6_18_0" index="0" disallow="pedestrian" speed="9.26" length="14.34" shape="900.89,-705.44 900.85,-705.15 898.60,-701.40 894.85,-699.15 889.60,-698.40"/>
    </edge>
    <edge id=":J6_12" function="internal">
        <lane id=":J6_12_0" index="0" disallow="pedestrian" speed="6.51" length="9.03" shape="889.60,-704.80 892.05,-705.15 893.80,-706.20 894.85,-707.95 895.20,-710.40"/>
    </edge>
    <edge id=":J6_13" function="internal">
        <lane id=":J6_13_0" index="0" disallow="pedestrian" speed="30.00" length="20.80" shape="889.60,-704.80 910.40,-704.80"/>
        <lane id=":J6_13_1" index="1" disallow="pedestrian" speed="30.00" length="20.80" shape="889.60,-701.60 910.40,-701.60"/>
    </edge>
    <edge id=":J6_15" function="internal">
        <lane id=":J6_15_0" index="0" disallow="pedestrian" speed="9.26" length="5.01" shape="889.60,-701.60 894.56,-700.89"/>
    </edge>
    <edge id=":J6_19" function="internal">
        <lane id=":J6_19_0" index="0" disallow="pedestrian" speed="9.26" length="14.34" shape="894.56,-700.89 894.85,-700.85 898.60,-698.60 900.85,-694.85 901.60,-689.60"/>
    </edge>
    <edge id=":J9_0" function="internal">
        <lane id=":J9_0_0" index="0" disallow="pedestrian" speed="6.51" length="9.03" shape="195.20,-689.60 194.85,-692.05 193.80,-693.80 192.05,-694.85 189.60,-695.20"/>
    </edge>
    <edge id=":J9_1" function="internal">
        <lane id=":J9_1_0" index="0" disallow="pedestrian" speed="30.00" length="20.80" shape="195.20,-689.60 195.20,-710.40"/>
        <lane id=":J9_1_1" index="1" disallow="pedestrian" speed="30.00" length="20.80" shape="198.40,-689.60 198.40,-710.40"/>
    </edge>
    <edge id=":J9_3" function="internal">
        <lane id=":J9_3_0" index="0" disallow="pedestrian" speed="9.26" length="5.01" shape="198.40,-689.60 199.11,-694.56"/>
    </edge>
    <edge id=":J9_16" function="internal">
        <lane id=":J9_16_0" index="0" disallow="pedestrian" speed="9.26" length="14.34" shape="199.11,-694.56 199.15,-694.85 201.40,-698.60 205.15,-700.85 210.40,-701.60"/>
    </edge>
    <edge id=":J9_4" function="internal">
        <lane id=":J9_4_0" index="0" disallow="pedestrian" speed="6.51" length="9.03" shape="210.40,-695.20 207.95,-694.85 206.20,-693.80 205.15,-692.05 204.80,-689.60"/>
    </edge>
    <edge id=":J9_5" function="internal">
        <lane id=":J9_5_0" index="0" disallow="pedestrian" speed="30.00" length="20.80" shape="210.40,-695.20 189.60,-695.20"/>