<?xml version="1.0" encoding="UTF-8"?>

<!-- generated on 2023-12-27 17:16:27.853604 by randomTrips.py v1_18_0+0000-03ecfdea036
<configuration>
    <net-file value="road_network.net.xml"/>
    <route-file value="road_network_map.rou.xml"/>
    <fringe-factor value="MAX"/>
    <validate value="True"/>
    <end value="400.0"/>
    <period value="0.5"/>
</configuration>
-->

<!-- generated on 2023-12-27 17:16:27 by Eclipse SUMO duarouter Version 1.18.0
<configuration xmlns:xsi="http://www.w3.org/2001/XMLSchema-instance" xsi:noNamespaceSchemaLocation="http://sumo.dlr.de/xsd/duarouterConfiguration.xsd">

    <input>
        <net-file value="road_network.net.xml"/>
        <route-files value="trips.trips.xml"/>
    </input>

    <output>
        <output-file value="road_network_map.rou.xml"/>
        <alternatives-output value="NUL"/>
    </output>

    <time>
        <begin value="0"/>
        <end value="400.0"/>
    </time>

    <report>
        <no-warnings value="true"/>
        <ignore-errors value="true"/>
        <no-step-log value="true"/>
    </report>

</configuration>
-->

<routes xmlns:xsi="http://www.w3.org/2001/XMLSchema-instance" xsi:noNamespaceSchemaLocation="http://sumo.dlr.de/xsd/routes_file.xsd">
    <vehicle id="1" depart="0.50">
        <route edges="-E30 -E28 E25 -E32"/>
    </vehicle>
    <vehicle id="2" depart="1.00">
        <route edges="E27 E28 E30"/>
    </vehicle>
    <vehicle id="3" depart="1.50">
        <route edges="E32 -E25 -E24 -E23"/>
    </vehicle>
    <vehicle id="4" depart="2.00">
        <route edges="-E33 -E25 -E24 -E23"/>
    </vehicle>
    <vehicle id="5" depart="2.50">
        <route edges="-E30 E29"/>
    </vehicle>
    <vehicle id="6" depart="3.00">
        <route edges="-E26 -E25 -E27"/>
    </vehicle>
    <vehicle id="7" depart="3.50">
        <route edges="E23 E24 E28 E29"/>
    </vehicle>
    <vehicle id="8" depart="4.00">
        <route edges="-E30 E29"/>
    </vehicle>
    <vehicle id="9" depart="4.50">
        <route edges="E32 -E25 -E24 -E23"/>
    </vehicle>
    <vehicle id="10" depart="5.00">
        <route edges="E32 -E25 E28 E30"/>
    </vehicle>
    <vehicle id="11" depart="5.50">
        <route edges="-E31 -E28 -E27"/>
    </vehicle>
    <vehicle id="13" depart="6.50">
        <route edges="-E26 -E25 -E24 -E23"/>
    </vehicle>
    <vehicle id="14" depart="7.00">
        <route edges="E32 -E25 E28 E30"/>
    </vehicle>
    <vehicle id="15" depart="7.50">
        <route edges="E32 -E25 E28 E31"/>
    </vehicle>
    <vehicle id="17" depart="8.50">
        <route edges="-E31 E29"/>
    </vehicle>
    <vehicle id="18" depart="9.00">
        <route edges="E32 -E25 E28 E30"/>
    </vehicle>
    <vehicle id="19" depart="9.50">
        <route edges="E32 -E25 E28 E29"/>
    </vehicle>
    <vehicle id="20" depart="10.00">
        <route edges="E27 -E24 -E23"/>
    </vehicle>
    <vehicle id="21" depart="10.50">
        <route edges="-E30 -E28 E25 -E32"/>
    </vehicle>
    <vehicle id="22" depart="11.00">
        <route edges="-E26 -E32"/>
    </vehicle>
    <vehicle id="23" depart="11.50">
        <route edges="-E29 -E28 E25 -E32"/>
    </vehicle>
    <vehicle id="24" depart="12.00">
        <route edges="E23 -E34"/>
    </vehicle>
    <vehicle id="25" depart="12.50">
        <route edges="-E31 -E28 E25 -E32"/>
    </vehicle>
    <vehicle id="26" depart="13.00">
        <route edges="-E30 -E28 -E24 E35"/>
    </vehicle>
    <vehicle id="27" depart="13.50">
        <route edges="E23 E24 E28 E30"/>
    </vehicle>
    <vehicle id="28" depart="14.00">
        <route edges="-E29 E31"/>
    </vehicle>
    <vehicle id="29" depart="14.50">
        <route edges="-E29 -E28 -E24 -E34"/>
    </vehicle>
    <vehicle id="30" depart="15.00">
        <route edges="E34 E24 E28 E30"/>
    </vehicle>
    <vehicle id="31" depart="15.50">
        <route edges="-E35 E24 E28 E30"/>
    </vehicle>
    <vehicle id="32" depart="16.00">
        <route edges="E32 -E25 E28 E31"/>
    </vehicle>
    <vehicle id="33" depart="16.50">
        <route edges="-E30 -E28 -E24 -E23"/>
    </vehicle>
    <vehicle id="34" depart="17.00">
        <route edges="-E31 -E28 E25 -E32"/>
    </vehicle>
    <vehicle id="35" depart="17.50">
        <route edges="-E30 -E28 -E24 E35"/>
    </vehicle>
    <vehicle id="36" depart="18.00">
        <route edges="E32 -E25 -E24 -E34"/>
    </vehicle>
    <vehicle id="37" depart="18.50">
        <route edges="E23 -E34"/>
    </vehicle>
    <vehicle id="38" depart="19.00">
        <route edges="E34 E24 E25 E26"/>
    </vehicle>
    <vehicle id="39" depart="19.50">
        <route edges="-E30 -E28 E25 -E32"/>
    </vehicle>
    <vehicle id="40" depart="20.00">
        <route edges="-E35 E24 E25 -E32"/>
    </vehicle>
    <vehicle id="41" depart="20.50">
        <route edges="-E35 E24 E25 E33"/>
    </vehicle>
    <vehicle id="42" depart="21.00">
        <route edges="-E31 -E28 E25 -E32"/>
    </vehicle>
    <vehicle id="43" depart="21.50">
        <route edges="E34 E24 E28 E29"/>
    </vehicle>
    <vehicle id="44" depart="22.00">
        <route edges="-E26 -E25 -E24 -E23"/>
    </vehicle>
    <vehicle id="45" depart="22.50">
        <route edges="-E29 E30"/>
    </vehicle>
    <vehicle id="46" depart="23.00">
        <route edges="E27 E25 E26"/>
    </vehicle>
    <vehicle id="47" depart="23.50">
        <route edges="-E26 -E25 -E24 -E34"/>
    </vehicle>
    <vehicle id="48" depart="24.00">
        <route edges="E34 E24 E28 E29"/>
    </vehicle>
    <vehicle id="49" depart="24.50">
        <route edges="E34 E24 E25 E33"/>
    </vehicle>
    <vehicle id="50" depart="25.00">
        <route edges="-E26 -E25 E28 E31"/>
    </vehicle>
    <vehicle id="51" depart="25.50">
        <route edges="E23 E24 E28 E29"/>
    </vehicle>
    <vehicle id="53" depart="26.50">
        <route edges="-E29 -E28 E25 E26"/>
    </vehicle>
    <vehicle id="54" depart="27.00">
        <route edges="-E33 -E25 -E24 E35"/>
    </vehicle>
    <vehicle id="56" depart="28.00">
        <route edges="-E35 E24 -E27"/>
    </vehicle>
    <vehicle id="57" depart="28.50">
        <route edges="E34 E24 E25 E33"/>
    </vehicle>
    <vehicle id="59" depart="29.50">
        <route edges="E23 E24 -E27"/>
    </vehicle>
    <vehicle id="60" depart="30.00">
        <route edges="E27 E28 E29"/>
    </vehicle>
    <vehicle id="61" depart="30.50">
        <route edges="E27 E28 E29"/>
    </vehicle>
    <vehicle id="62" depart="31.00">
        <route edges="-E26 -E25 -E24 -E34"/>
    </vehicle>
    <vehicle id="63" depart="31.50">
        <route edges="-E26 -E25 -E24 E35"/>
    </vehicle>
    <vehicle id="64" depart="32.00">
        <route edges="E32 E33"/>
    </vehicle>
    <vehicle id="65" depart="32.50">
        <route edges="-E31 -E28 -E24 -E23"/>
    </vehicle>
    <vehicle id="66" depart="33.00">
        <route edges="E32 -E25 -E24 E35"/>
    </vehicle>
    <vehicle id="68" depart="34.00">
        <route edges="-E26 -E25 E28 E31"/>
    </vehicle>
    <vehicle id="70" depart="35.00">
        <route edges="-E33 -E25 E28 E29"/>
    </vehicle>
    <vehicle id="71" depart="35.50">
        <route edges="-E30 -E28 E25 E33"/>
    </vehicle>
    <vehicle id="72" depart="36.00">
        <route edges="-E33 -E32"/>
    </vehicle>
    <vehicle id="73" depart="36.50">
        <route edges="-E35 E24 E28 E31"/>
    </vehicle>
    <vehicle id="74" depart="37.00">
        <route edges="-E30 -E28 -E24 -E34"/>
    </vehicle>
    <vehicle id="75" depart="37.50">
        <route edges="E34 E24 E28 E30"/>
    </vehicle>
    <vehicle id="76" depart="38.00">
        <route edges="-E33 -E25 E28 E29"/>
    </vehicle>
    <vehicle id="77" depart="38.50">
        <route edges="-E29 -E28 E25 -E32"/>
    </vehicle>
    <vehicle id="78" depart="39.00">
        <route edges="-E31 E29"/>
    </vehicle>
    <vehicle id="79" depart="39.50">
        <route edges="-E30 -E28 E25 -E32"/>
    </vehicle>
    <vehicle id="80" depart="40.00">
        <route edges="-E26 -E25 E28 E30"/>
    </vehicle>
    <vehicle id="81" depart="40.50">
        <route edges="-E30 -E28 -E24 E35"/>
    </vehicle>
    <vehicle id="82" depart="41.00">
        <route edges="E32 -E25 -E24 -E23"/>
    </vehicle>
    <vehicle id="84" depart="42.00">
        <route edges="-E30 -E28 -E27"/>
    </vehicle>
    <vehicle id="85" depart="42.50">
        <route edges="E34 E24 E28 E29"/>
    </vehicle>
    <vehicle id="86" depart="43.00">
        <route edges="-E33 -E25 E28 E31"/>
    </vehicle>
    <vehicle id="87" depart="43.50">
        <route edges="E32 -E25 -E27"/>
    </vehicle>
    <vehicle id="89" depart="44.50">
        <route edges="-E33 E26"/>
    </vehicle>
    <vehicle id="90" depart="45.00">
        <route edges="E27 E28 E30"/>
    </vehicle>
    <vehicle id="91" depart="45.50">
        <route edges="E34 -E23"/>
    </vehicle>
    <vehicle id="92" depart="46.00">
        <route edges="-E33 -E25 -E24 -E34"/>
    </vehicle>
    <vehicle id="94" depart="47.00">
        <route edges="-E29 -E28 E25 E26"/>
    </vehicle>
    <vehicle id="95" depart="47.50">
        <route edges="-E33 -E32"/>
    </vehicle>
    <vehicle id="96" depart="48.00">
        <route edges="-E30 -E28 -E24 E35"/>
    </vehicle>
    <vehicle id="98" depart="49.00">
        <route edges="-E35 -E23"/>
    </vehicle>
    <vehicle id="99" depart="49.50">
        <route edges="E34 E24 E25 E33"/>
    </vehicle>
    <vehicle id="100" depart="50.00">
        <route edges="E34 E35"/>
    </vehicle>
    <vehicle id="101" depart="50.50">
        <route edges="E32 -E25 -E27"/>
    </vehicle>
    <vehicle id="102" depart="51.00">
        <route edges="-E33 -E32"/>
    </vehicle>
    <vehicle id="103" depart="51.50">
        <route edges="-E33 -E25 -E24 -E23"/>
    </vehicle>
    <vehicle id="104" depart="52.00">
        <route edges="-E31 -E28 -E24 E35"/>
    </vehicle>
    <vehicle id="105" depart="52.50">
        <route edges="-E30 E31"/>
    </vehicle>
    <vehicle id="106" depart="53.00">
        <route edges="-E33 E26"/>
    </vehicle>
    <vehicle id="107" depart="53.50">
        <route edges="E34 E35"/>
    </vehicle>
    <vehicle id="108" depart="54.00">
        <route edges="-E35 E24 E28 E31"/>
    </vehicle>
    <vehicle id="109" depart="54.50">
        <route edges="-E29 -E28 E25 -E32"/>
    </vehicle>
    <vehicle id="110" depart="55.00">
        <route edges="E34 E24 E28 E29"/>
    </vehicle>
    <vehicle id="111" depart="55.50">
        <route edges="-E35 E24 E28 E31"/>
    </vehicle>
    <vehicle id="112" depart="56.00">
        <route edges="-E26 -E25 E28 E29"/>
    </vehicle>
    <vehicle id="113" depart="56.50">
        <route edges="-E35 E24 E25 E33"/>
    </vehicle>
    <vehicle id="114" depart="57.00">
        <route edges="-E29 -E28 -E24 E35"/>
    </vehicle>
    <vehicle id="115" depart="57.50">
        <route edges="-E26 -E25 -E27"/>
    </vehicle>
    <vehicle id="116" depart="58.00">
        <route edges="-E35 E24 E28 E30"/>
    </vehicle>
    <vehicle id="117" depart="58.50">
        <route edges="-E30 -E28 -E27"/>
    </vehicle>
    <vehicle id="119" depart="59.50">
        <route edges="-E35 E24 E28 E30"/>
    </vehicle>
    <vehicle id="120" depart="60.00">
        <route edges="-E33 -E25 E28 E29"/>
    </vehicle>
    <vehicle id="122" depart="61.00">
        <route edges="-E30 E31"/>
    </vehicle>
    <vehicle id="123" depart="61.50">
        <route edges="-E30 -E28 -E24 -E34"/>
    </vehicle>
    <vehicle id="124" depart="62.00">
        <route edges="E23 E24 E25 -E32"/>
    </vehicle>
    <vehicle id="127" depart="63.50">
        <route edges="E34 E35"/>
    </vehicle>
    <vehicle id="128" depart="64.00">
        <route edges="-E26 -E32"/>
    </vehicle>
    <vehicle id="129" depart="64.50">
        <route edges="-E30 -E28 -E24 E35"/>
    </vehicle>
    <vehicle id="130" depart="65.00">
        <route edges="E32 E33"/>
    </vehicle>
    <vehicle id="131" depart="65.50">
        <route edges="-E31 -E28 -E27"/>
    </vehicle>
    <vehicle id="132" depart="66.00">
        <route edges="E32 -E25 E28 E31"/>
    </vehicle>
    <vehicle id="133" depart="66.50">
        <route edges="E23 E35"/>
    </vehicle>
    <vehicle id="136" depart="68.00">
        <route edges="E23 E35"/>
    </vehicle>
    <vehicle id="137" depart="68.50">
        <route edges="-E29 -E28 -E27"/>
    </vehicle>
    <vehicle id="140" depart="70.00">
        <route edges="E27 E25 -E32"/>
    </vehicle>
    <vehicle id="141" depart="70.50">
        <route edges="E23 E24 E25 -E32"/>
    </vehicle>
    <vehicle id="142" depart="71.00">
        <route edges="-E33 -E25 -E24 E35"/>
    </vehicle>
    <vehicle id="143" depart="71.50">
        <route edges="E32 -E25 -E24 -E23"/>
    </vehicle>
    <vehicle id="144" depart="72.00">
        <route edges="-E33 -E32"/>
    </vehicle>
    <vehicle id="145" depart="72.50">
        <route edges="-E26 -E25 E28 E31"/>
    </vehicle>
    <vehicle id="146" depart="73.00">
        <route edges="E23 E24 E25 -E32"/>
    </vehicle>
    <vehicle id="147" depart="73.50">
        <route edges="E27 E28 E29"/>
    </vehicle>
    <vehicle id="148" depart="74.00">
        <route edges="-E33 -E25 -E24 -E23"/>
    </vehicle>
    <vehicle id="149" depart="74.50">
        <route edges="-E26 E33"/>
    </vehicle>
    <vehicle id="150" depart="75.00">
        <route edges="E34 E24 E28 E29"/>
    </vehicle>
    <vehicle id="151" depart="75.50">
        <route edges="E32 -E25 E28 E29"/>
    </vehicle>
    <vehicle id="152" depart="76.00">
        <route edges="-E29 -E28 -E27"/>
    </vehicle>
    <vehicle id="153" depart="76.50">
        <route edges="-E31 -E28 E25 E33"/>
    </vehicle>
    <vehicle id="154" depart="77.00">
        <route edges="E27 E25 E33"/>
    </vehicle>
    <vehicle id="156" depart="78.00">
        <route edges="-E30 -E28 -E27"/>
    </vehicle>
    <vehicle id="157" depart="78.50">
        <route edges="E27 E25 E33"/>
    </vehicle>
    <vehicle id="158" depart="79.00">
        <route edges="-E33 -E25 E28 E30"/>
    </vehicle>
    <vehicle id="159" depart="79.50">
        <route edges="-E29 -E28 -E24 E35"/>
    </vehicle>
    <vehicle id="160" depart="80.00">
        <route edges="E32 -E25 -E24 E35"/>
    </vehicle>
    <vehicle id="161" depart="80.50">
        <route edges="E32 E33"/>
    </vehicle>
    <vehicle id="162" depart="81.00">
        <route edges="-E26 -E25 E28 E31"/>
    </vehicle>
    <vehicle id="163" depart="81.50">
        <route edges="-E31 -E28 -E24 E35"/>
    </vehicle>
    <vehicle id="164" depart="82.00">
        <route edges="E32 E33"/>
    </vehicle>
    <vehicle id="167" depart="83.50">
        <route edges="E32 E33"/>
    </vehicle>
    <vehicle id="168" depart="84.00">
        <route edges="-E30 -E28 E25 E33"/>
    </vehicle>
    <vehicle id="169" depart="84.50">
        <route edges="-E33 -E25 -E24 -E34"/>
    </vehicle>
    <vehicle id="170" depart="85.00">
        <route edges="E27 E25 -E32"/>
    </vehicle>
    <vehicle id="171" depart="85.50">
        <route edges="-E26 -E25 -E27"/>
    </vehicle>
    <vehicle id="172" depart="86.00">
        <route edges="-E31 -E28 E25 E33"/>
    </vehicle>
    <vehicle id="173" depart="86.50">
        <route edges="E34 E24 E25 -E32"/>
    </vehicle>
    <vehicle id="174" depart="87.00">
        <route edges="E23 -E34"/>
    </vehicle>
    <vehicle id="175" depart="87.50">
        <route edges="E34 E24 E28 E29"/>
    </vehicle>
    <vehicle id="176" depart="88.00">
        <route edges="E34 E24 -E27"/>
    </vehicle>
    <vehicle id="177" depart="88.50">
        <route edges="E34 E24 -E27"/>
    </vehicle>
    <vehicle id="178" depart="89.00">
        <route edges="E34 E24 E25 -E32"/>
    </vehicle>
    <vehicle id="179" depart="89.50">
        <route edges="-E29 -E28 E25 E26"/>
    </vehicle>
    <vehicle id="180" depart="90.00">
        <route edges="E27 -E24 -E34"/>
    </vehicle>
    <vehicle id="181" depart="90.50">
        <route edges="E23 E24 E28 E29"/>
    </vehicle>
    <vehicle id="182" depart="91.00">
        <route edges="-E31 E29"/>
    </vehicle>
    <vehicle id="183" depart="91.50">
        <route edges="-E30 E31"/>
    </vehicle>
    <vehicle id="184" depart="92.00">
        <route edges="-E26 -E25 -E24 E35"/>
    </vehicle>
    <vehicle id="185" depart="92.50">
        <route edges="-E35 E24 E28 E31"/>
    </vehicle>
    <vehicle id="186" depart="93.00">
        <route edges="E27 E28 E30"/>
    </vehicle>
    <vehicle id="187" depart="93.50">
        <route edges="-E31 -E28 -E24 -E23"/>
    </vehicle>
    <vehicle id="188" depart="94.00">
        <route edges="E23 -E34"/>
    </vehicle>
    <vehicle id="189" depart="94.50">
        <route edges="-E31 -E28 E25 E33"/>
    </vehicle>
    <vehicle id="190" depart="95.00">
        <route edges="E27 -E24 -E34"/>
    </vehicle>
    <vehicle id="191" depart="95.50">
        <route edges="-E31 -E28 E25 E26"/>
    </vehicle>
    <vehicle id="192" depart="96.00">
        <route edges="-E33 -E32"/>
    </vehicle>
    <vehicle id="193" depart="96.50">
        <route edges="-E29 -E28 E25 E26"/>
    </vehicle>
    <vehicle id="194" depart="97.00">
        <route edges="E34 E24 E28 E30"/>
    </vehicle>
    <vehicle id="195" depart="97.50">
        <route edges="E34 E24 E28 E30"/>
    </vehicle>
    <vehicle id="196" depart="98.00">
        <route edges="-E31 E29"/>
    </vehicle>
    <vehicle id="197" depart="98.50">
        <route edges="-E26 -E32"/>
    </vehicle>
    <vehicle id="198" depart="99.00">
        <route edges="-E33 -E25 E28 E29"/>
    </vehicle>
    <vehicle id="199" depart="99.50">
        <route edges="E23 E24 E25 E26"/>
    </vehicle>
    <vehicle id="200" depart="100.00">
        <route edges="-E33 -E32"/>
    </vehicle>
    <vehicle id="201" depart="100.50">
        <route edges="-E33 -E25 -E24 E35"/>
    </vehicle>
    <vehicle id="203" depart="101.50">
        <route edges="-E26 -E25 E28 E29"/>
    </vehicle>
    <vehicle id="204" depart="102.00">
        <route edges="E23 -E34"/>
    </vehicle>
    <vehicle id="205" depart="102.50">
        <route edges="E32 -E25 E28 E31"/>
    </vehicle>
    <vehicle id="206" depart="103.00">
        <route edges="E23 E24 E25 -E32"/>
    </vehicle>
    <vehicle id="207" depart="103.50">
        <route edges="-E29 -E28 -E24 -E23"/>
    </vehicle>
    <vehicle id="208" depart="104.00">
        <route edges="-E30 -E28 E25 E26"/>
    </vehicle>
    <vehicle id="209" depart="104.50">
        <route edges="E32 -E25 -E24 -E23"/>
    </vehicle>
    <vehicle id="210" depart="105.00">
        <route edges="-E33 -E25 E28 E30"/>
    </vehicle>
    <vehicle id="211" depart="105.50">
        <route edges="-E29 E30"/>
    </vehicle>
    <vehicle id="212" depart="106.00">
        <route edges="-E33 -E32"/>
    </vehicle>
    <vehicle id="214" depart="107.00">
        <route edges="E27 E28 E31"/>
    </vehicle>
    <vehicle id="215" depart="107.50">
        <route edges="-E29 -E28 E25 E26"/>
    </vehicle>
    <vehicle id="216" depart="108.00">
        <route edges="-E29 -E28 -E24 E35"/>
    </vehicle>
    <vehicle id="217" depart="108.50">
        <route edges="-E35 -E23"/>
    </vehicle>
    <vehicle id="218" depart="109.00">
        <route edges="-E30 -E28 E25 E33"/>
    </vehicle>
    <vehicle id="220" depart="110.00">
        <route edges="E23 E35"/>
    </vehicle>
    <vehicle id="222" depart="111.00">
        <route edges="E32 -E25 E28 E30"/>
    </vehicle>
    <vehicle id="223" depart="111.50">
        <route edges="E27 E28 E29"/>
    </vehicle>
    <vehicle id="224" depart="112.00">
        <route edges="E32 -E25 E28 E29"/>
    </vehicle>
    <vehicle id="225" depart="112.50">
        <route edges="E32 -E25 E28 E31"/>
    </vehicle>
    <vehicle id="226" depart="113.00">
        <route edges="-E33 -E32"/>
    </vehicle>
    <vehicle id="228" depart="114.00">
        <route edges="E27 E28 E29"/>
    </vehicle>
    <vehicle id="229" depart="114.50">
        <route edges="E23 E24 E25 -E32"/>
    </vehicle>
    <vehicle id="230" depart="115.00">
        <route edges="-E26 -E32"/>
    </vehicle>
    <vehicle id="231" depart="115.50">
        <route edges="-E30 -E28 -E24 -E34"/>
    </vehicle>
    <vehicle id="232" depart="116.00">
        <route edges="-E35 E24 -E27"/>
    </vehicle>
    <vehicle id="234" depart="117.00">
        <route edges="E27 -E24 -E23"/>
    </vehicle>
    <vehicle id="235" depart="117.50">
        <route edges="-E33 -E25 E28 E29"/>
    </vehicle>
    <vehicle id="236" depart="118.00">
        <route edges="-E33 -E32"/>
    </vehicle>
    <vehicle id="237" depart="118.50">
        <route edges="-E33 -E25 -E24 E35"/>
    </vehicle>
    <vehicle id="238" depart="119.00">
        <route edges="-E35 E24 E28 E30"/>
    </vehicle>
    <vehicle id="239" depart="119.50">
        <route edges="E32 -E25 E28 E31"/>
    </vehicle>
    <vehicle id="240" depart="120.00">
        <route edges="-E31 -E28 -E24 -E23"/>
    </vehicle>
    <vehicle id="242" depart="121.00">
        <route edges="E32 -E25 -E24 E35"/>
    </vehicle>
    <vehicle id="243" depart="121.50">
        <route edges="-E33 -E25 E28 E31"/>
    </vehicle>
    <vehicle id="244" depart="122.00">
        <route edges="-E35 E24 E28 E30"/>
    </vehicle>
    <vehicle id="245" depart="122.50">
        <route edges="-E30 -E28 E25 -E32"/>
    </vehicle>
    <vehicle id="246" depart="123.00">
        <route edges="-E33 -E25 -E24 -E23"/>
    </vehicle>
    <vehicle id="247" depart="123.50">
        <route edges="-E31 E30"/>
    </vehicle>
    <vehicle id="248" depart="124.00">
        <route edges="-E33 -E25 -E27"/>
    </vehicle>
    <vehicle id="249" depart="124.50">
        <route edges="-E33 -E25 -E27"/>
    </vehicle>
    <vehicle id="251" depart="125.50">
        <route edges="-E31 E29"/>
    </vehicle>
    <vehicle id="252" depart="126.00">
        <route edges="-E26 -E25 E28 E30"/>
    </vehicle>
    <vehicle id="253" depart="126.50">
        <route edges="-E29 -E28 E25 E26"/>
    </vehicle>
    <vehicle id="254" depart="127.00">
        <route edges="-E26 -E25 -E24 -E34"/>
    </vehicle>
    <vehicle id="255" depart="127.50">
        <route edges="-E30 -E28 -E24 -E34"/>
    </vehicle>
    <vehicle id="256" depart="128.00">
        <route edges="E27 -E24 -E34"/>
    </vehicle>
    <vehicle id="257" depart="128.50">
        <route edges="E27 E25 E33"/>
    </vehicle>
    <vehicle id="258" depart="129.00">
        <route edges="-E30 -E28 -E24 -E23"/>
    </vehicle>
    <vehicle id="259" depart="129.50">
        <route edges="-E26 -E25 E28 E29"/>
    </vehicle>
    <vehicle id="261" depart="130.50">
        <route edges="E23 E24 E28 E31"/>
    </vehicle>
    <vehicle id="262" depart="131.00">
        <route edges="E23 E24 E28 E31"/>
    </vehicle>
    <vehicle id="263" depart="131.50">
        <route edges="E34 E24 -E27"/>
    </vehicle>
    <vehicle id="264" depart="132.00">
        <route edges="-E26 -E25 -E27"/>
    </vehicle>
    <vehicle id="265" depart="132.50">
        <route edges="-E29 E30"/>
    </vehicle>
    <vehicle id="266" depart="133.00">
        <route edges="-E35 E24 E25 -E32"/>
    </vehicle>
    <vehicle id="267" depart="133.50">
        <route edges="E23 E24 E28 E31"/>
    </vehicle>
    <vehicle id="268" depart="134.00">
        <route edges="-E29 E30"/>
    </vehicle>
    <vehicle id="270" depart="135.00">
        <route edges="E32 -E25 -E24 E35"/>
    </vehicle>
    <vehicle id="271" depart="135.50">
        <route edges="-E29 -E28 -E24 -E23"/>
    </vehicle>
    <vehicle id="272" depart="136.00">
        <route edges="-E31 E30"/>
    </vehicle>
    <vehicle id="274" depart="137.00">
        <route edges="E27 -E24 -E23"/>
    </vehicle>
    <vehicle id="275" depart="137.50">
        <route edges="E23 E24 E28 E30"/>
    </vehicle>
    <vehicle id="276" depart="138.00">
        <route edges="-E29 E31"/>
    </vehicle>
    <vehicle id="277" depart="138.50">
        <route edges="E32 -E25 E28 E30"/>
    </vehicle>
    <vehicle id="278" depart="139.00">
        <route edges="-E29 -E28 -E24 E35"/>
    </vehicle>
    <vehicle id="279" depart="139.50">
        <route edges="E27 -E24 -E34"/>
    </vehicle>
    <vehicle id="280" depart="140.00">
        <route edges="-E33 -E25 -E24 -E34"/>
    </vehicle>
    <vehicle id="281" depart="140.50">
        <route edges="-E35 -E34"/>
    </vehicle>
    <vehicle id="282" depart="141.00">
        <route edges="E32 E33"/>
    </vehicle>
    <vehicle id="283" depart="141.50">
        <route edges="-E29 -E28 -E24 E35"/>
    </vehicle>
    <vehicle id="284" depart="142.00">
        <route edges="E23 E24 E25 E33"/>
    </vehicle>
    <vehicle id="285" depart="142.50">
        <route edges="E27 E25 E26"/>
    </vehicle>
    <vehicle id="286" depart="143.00">
        <route edges="E27 -E24 E35"/>
    </vehicle>
    <vehicle id="287" depart="143.50">
        <route edges="-E30 -E28 E25 E33"/>
    </vehicle>
    <vehicle id="288" depart="144.00">
        <route edges="-E35 E24 E25 E26"/>
    </vehicle>
    <vehicle id="289" depart="144.50">
        <route edges="-E33 -E25 E28 E31"/>
    </vehicle>
    <vehicle id="290" depart="145.00">
        <route edges="-E30 -E28 E25 E33"/>
    </vehicle>
    <vehicle id="291" depart="145.50">
        <route edges="E32 -E25 -E24 -E23"/>
    </vehicle>
    <vehicle id="293" depart="146.50">
        <route edges="-E33 -E25 E28 E30"/>
    </vehicle>
    <vehicle id="294" depart="147.00">
        <route edges="-E31 -E28 -E24 -E23"/>
    </vehicle>
    <vehicle id="295" depart="147.50">
        <route edges="E32 -E25 -E27"/>
    </vehicle>
    <vehicle id="296" depart="148.00">
        <route edges="-E30 E31"/>
    </vehicle>
    <vehicle id="297" depart="148.50">
        <route edges="-E31 -E28 E25 E33"/>
    </vehicle>
    <vehicle id="298" depart="149.00">
        <route edges="E27 E25 -E32"/>
    </vehicle>
    <vehicle id="299" depart="149.50">
        <route edges="-E26 -E25 -E24 E35"/>
    </vehicle>
    <vehicle id="300" depart="150.00">
        <route edges="-E26 -E25 E28 E31"/>
    </vehicle>
    <vehicle id="301" depart="150.50">
        <route edges="-E33 -E25 E28 E31"/>
    </vehicle>
    <vehicle id="302" depart="151.00">
        <route edges="E23 E24 E28 E30"/>
    </vehicle>
    <vehicle id="303" depart="151.50">
        <route edges="-E33 -E25 E28 E31"/>
    </vehicle>
    <vehicle id="304" depart="152.00">
        <route edges="-E26 -E32"/>
    </vehicle>
    <vehicle id="305" depart="152.50">
        <route edges="E23 -E34"/>
    </vehicle>
    <vehicle id="306" depart="153.00">
        <route edges="-E35 E24 E25 E26"/>
    </vehicle>
    <vehicle id="307" depart="153.50">
        <route edges="-E35 E24 E25 E26"/>
    </vehicle>
    <vehicle id="308" depart="154.00">
        <route edges="E27 -E24 -E34"/>
    </vehicle>
    <vehicle id="309" depart="154.50">
        <route edges="E27 E25 -E32"/>
    </vehicle>
    <vehicle id="310" depart="155.00">
        <route edges="-E30 -E28 -E27"/>
    </vehicle>
    <vehicle id="311" depart="155.50">
        <route edges="-E29 -E28 -E27"/>
    </vehicle>
    <vehicle id="312" depart="156.00">
        <route edges="-E35 E24 E28 E31"/>
    </vehicle>
    <vehicle id="313" depart="156.50">
        <route edges="-E29 -E28 E25 -E32"/>
    </vehicle>
    <vehicle id="314" depart="157.00">
        <route edges="-E33 -E25 E28 E31"/>
    </vehicle>
    <vehicle id="315" depart="157.50">
        <route edges="E34 E24 E28 E29"/>
    </vehicle>
    <vehicle id="316" depart="158.00">
        <route edges="-E30 -E28 -E27"/>
    </vehicle>
    <vehicle id="317" depart="158.50">
        <route edges="-E29 -E28 E25 -E32"/>
    </vehicle>
    <vehicle id="318" depart="159.00">
        <route edges="-E29 -E28 -E24 -E23"/>
    </vehicle>
    <vehicle id="319" depart="159.50">
        <route edges="-E35 E24 E25 -E32"/>
    </vehicle>
    <vehicle id="320" depart="160.00">
        <route edges="E34 E24 E28 E29"/>
    </vehicle>
    <vehicle id="321" depart="160.50">
        <route edges="E23 E24 -E27"/>
    </vehicle>
    <vehicle id="322" depart="161.00">
        <route edges="E32 E26"/>
    </vehicle>
    <vehicle id="323" depart="161.50">
        <route edges="E32 -E25 E28 E29"/>
    </vehicle>
    <vehicle id="324" depart="162.00">
        <route edges="-E33 E26"/>
    </vehicle>
    <vehicle id="325" depart="162.50">
        <route edges="-E29 -E28 -E24 -E23"/>
    </vehicle>
    <vehicle id="326" depart="163.00">
        <route edges="E34 E24 E25 E26"/>
    </vehicle>
    <vehicle id="327" depart="163.50">
        <route edges="E32 E26"/>
    </vehicle>
    <vehicle id="328" depart="164.00">
        <route edges="-E26 -E25 E28 E30"/>
    </vehicle>
    <vehicle id="329" depart="164.50">
        <route edges="-E26 -E25 -E27"/>
    </vehicle>
    <vehicle id="330" depart="165.00">
        <route edges="-E35 -E34"/>
    </vehicle>
    <vehicle id="331" depart="165.50">
        <route edges="E34 E24 -E27"/>
    </vehicle>
    <vehicle id="332" depart="166.00">
        <route edges="E27 E28 E30"/>
    </vehicle>
    <vehicle id="333" depart="166.50">
        <route edges="E27 E25 -E32"/>
    </vehicle>
    <vehicle id="334" depart="167.00">
        <route edges="-E35 E24 E25 E26"/>
    </vehicle>
    <vehicle id="337" depart="168.50">
        <route edges="E23 E24 E28 E30"/>
    </vehicle>
    <vehicle id="338" depart="169.00">
        <route edges="E27 -E24 E35"/>
    </vehicle>
    <vehicle id="339" depart="169.50">
        <route edges="-E30 -E28 E25 -E32"/>
    </vehicle>
    <vehicle id="340" depart="170.00">
        <route edges="E23 E24 -E27"/>
    </vehicle>
    <vehicle id="341" depart="170.50">
        <route edges="-E29 -E28 -E24 -E23"/>
    </vehicle>
    <vehicle id="343" depart="171.50">
        <route edges="-E35 E24 E25 -E32"/>
    </vehicle>
    <vehicle id="344" depart="172.00">
        <route edges="-E30 E31"/>
    </vehicle>
    <vehicle id="345" depart="172.50">
        <route edges="E27 E25 E26"/>
    </vehicle>