<?xml version="1.0" encoding="UTF-8"?>

<!-- generated on 2023-12-27 16:55:55 by Eclipse SUMO netedit Version 1.18.0
<configuration xmlns:xsi="http://www.w3.org/2001/XMLSchema-instance" xsi:noNamespaceSchemaLocation="http://sumo.dlr.de/xsd/neteditConfiguration.xsd">

    <input>
        <sumo-net-file value="C:\Users\LEGION\Desktop\Folder\project_sumo_files\config_5\road_network.net.xml"/>
    </input>

    <output>
        <output-file value="C:\Users\LEGION\Desktop\Folder\project_sumo_files\config_5\road_network.net.xml"/>
    </output>

    <processing>
        <offset.disable-normalization value="true"/>
    </processing>

    <junctions>
        <no-turnarounds value="true"/>
    </junctions>

    <netedit>
        <new-network value="false"/>
    </netedit>

</configuration>
-->

<net version="1.16" junctionCornerDetail="5" limitTurnSpeed="5.50" xmlns:xsi="http://www.w3.org/2001/XMLSchema-instance" xsi:noNamespaceSchemaLocation="http://sumo.dlr.de/xsd/net_file.xsd">

    <location netOffset="0.00,0.00" convBoundary="-300.00,-400.00,900.00,200.00" origBoundary="10000000000.00,10000000000.00,-10000000000.00,-10000000000.00" projParameter="!"/>

    <edge id=":J28_0" function="internal">
        <lane id=":J28_0_0" index="0" speed="6.51" length="9.03" shape="-204.80,110.40 -205.15,107.95 -206.20,106.20 -207.95,105.15 -210.40,104.80"/>
    </edge>
    <edge id=":J28_1" function="internal">
        <lane id=":J28_1_0" index="0" speed="20.00" length="20.80" shape="-204.80,110.40 -204.80,89.60"/>
        <lane id=":J28_1_1" index="1" speed="20.00" length="20.80" shape="-201.60,110.40 -201.60,89.60"/>
    </edge>
    <edge id=":J28_3" function="internal">
        <lane id=":J28_3_0" index="0" speed="9.26" length="5.01" shape="-201.60,110.40 -200.89,105.44"/>
    </edge>
    <edge id=":J28_16" function="internal">
        <lane id=":J28_16_0" index="0" speed="9.26" length="14.34" shape="-200.89,105.44 -200.85,105.15 -198.60,101.40 -194.85,99.15 -189.60,98.40"/>
    </edge>
    <edge id=":J28_4" function="internal">
        <lane id=":J28_4_0" index="0" speed="6.51" length="9.03" shape="-189.60,104.80 -192.05,105.15 -193.80,106.20 -194.85,107.95 -195.20,110.40"/>
    </edge>
    <edge id=":J28_5" function="internal">
        <lane id=":J28_5_0" index="0" speed="20.00" length="20.80" shape="-189.60,104.80 -210.40,104.80"/>
        <lane id=":J28_5_1" index="1" speed="20.00" length="20.80" shape="-189.60,101.60 -210.40,101.60"/>
    </edge>
    <edge id=":J28_7" function="internal">
        <lane id=":J28_7_0" index="0" speed="9.26" length="5.01" shape="-189.60,101.60 -194.56,100.89"/>
    </edge>
    <edge id=":J28_17" function="internal">
        <lane id=":J28_17_0" index="0" speed="9.26" length="14.34" shape="-194.56,100.89 -194.85,100.85 -198.60,98.60 -200.85,94.85 -201.60,89.60"/>
    </edge>
    <edge id=":J28_8" function="internal">
        <lane id=":J28_8_0" index="0" speed="6.51" length="9.03" shape="-195.20,89.60 -194.85,92.05 -193.80,93.80 -192.05,94.85 -189.60,95.20"/>
    </edge>
    <edge id=":J28_9" function="internal">
        <lane id=":J28_9_0" index="0" speed="20.00" length="20.80" shape="-195.20,89.60 -195.20,110.40"/>
        <lane id=":J28_9_1" index="1" speed="20.00" length="20.80" shape="-198.40,89.60 -198.40,110.40"/>
    </edge>
    <edge id=":J28_11" function="internal">
        <lane id=":J28_11_0" index="0" speed="9.26" length="5.01" shape="-198.40,89.60 -199.11,94.56"/>
    </edge>
    <edge id=":J28_18" function="internal">
        <lane id=":J28_18_0" index="0" speed="9.26" length="14.34" shape="-199.11,94.56 -199.15,94.85 -201.40,98.60 -205.15,100.85 -210.40,101.60"/>
    </edge>
    <edge id=":J28_12" function="internal">
        <lane id=":J28_12_0" index="0" speed="6.51" length="9.03" shape="-210.40,95.20 -207.95,94.85 -206.20,93.80 -205.15,92.05 -204.80,89.60"/>
    </edge>
    <edge id=":J28_13" function="internal">
        <lane id=":J28_13_0" index="0" speed="20.00" length="20.80" shape="-210.40,95.20 -189.60,95.20"/>
        <lane id=":J28_13_1" index="1" speed="20.00" length="20.80" shape="-210.40,98.40 -189.60,98.40"/>
    </edge>
    <edge id=":J28_15" function="internal">
        <lane id=":J28_15_0" index="0" speed="9.26" length="5.01" shape="-210.40,98.40 -205.44,99.11"/>
    </edge>
    <edge id=":J28_19" function="internal">
        <lane id=":J28_19_0" index="0" speed="9.26" length="14.34" shape="-205.44,99.11 -205.15,99.15 -201.40,101.40 -199.15,105.15 -198.40,110.40"/>
    </edge>
    <edge id=":J29_0" function="internal">
        <lane id=":J29_0_0" index="0" speed="6.51" length="9.03" shape="295.20,110.40 294.85,107.95 293.80,106.20 292.05,105.15 289.60,104.80"/>
    </edge>
    <edge id=":J29_1" function="internal">
        <lane id=":J29_1_0" index="0" speed="20.00" length="20.80" shape="295.20,110.40 295.20,89.60"/>
        <lane id=":J29_1_1" index="1" speed="20.00" length="20.80" shape="298.40,110.40 298.40,89.60"/>
    </edge>
    <edge id=":J29_3" function="internal">
        <lane id=":J29_3_0" index="0" speed="9.26" length="5.01" shape="298.40,110.40 299.11,105.44"/>
    </edge>
    <edge id=":J29_16" function="internal">
        <lane id=":J29_16_0" index="0" speed="9.26" length="14.34" shape="299.11,105.44 299.15,105.15 301.40,101.40 305.15,99.15 310.40,98.40"/>
    </edge>
    <edge id=":J29_4" function="internal">
        <lane id=":J29_4_0" index="0" speed="6.51" length="9.03" shape="310.40,104.80 307.95,105.15 306.20,106.20 305.15,107.95 304.80,110.40"/>
    </edge>
    <edge id=":J29_5" function="internal">
        <lane id=":J29_5_0" index="0" speed="20.00" length="20.80" shape="310.40,104.80 289.60,104.80"/>
        <lane id=":J29_5_1" index="1" speed="20.00" length="20.80" shape="310.40,101.60 289.60,101.60"/>
    </edge>
    <edge id=":J29_7" function="internal">
        <lane id=":J29_7_0" index="0" speed="9.26" length="5.01" shape="310.40,101.60 305.44,100.89"/>
    </edge>
    <edge id=":J29_17" function="internal">
        <lane id=":J29_17_0" index="0" speed="9.26" length="14.34" shape="305.44,100.89 305.15,100.85 301.40,98.60 299.15,94.85 298.40,89.60"/>
    </edge>
    <edge id=":J29_8" function="internal">
        <lane id=":J29_8_0" index="0" speed="6.51" length="9.03" shape="304.80,89.60 305.15,92.05 306.20,93.80 307.95,94.85 310.40,95.20"/>
    </edge>
    <edge id=":J29_9" function="internal">
        <lane id=":J29_9_0" index="0" speed="20.00" length="20.80" shape="304.80,89.60 304.80,110.40"/>
        <lane id=":J29_9_1" index="1" speed="20.00" length="20.80" shape="301.60,89.60 301.60,110.40"/>
    </edge>
    <edge id=":J29_11" function="internal">
        <lane id=":J29_11_0" index="0" speed="9.26" length="5.01" shape="301.60,89.60 300.89,94.56"/>
    </edge>
    <edge id=":J29_18" function="internal">
        <lane id=":J29_18_0" index="0" speed="9.26" length="14.34" shape="300.89,94.56 300.85,94.85 298.60,98.60 294.85,100.85 289.60,101.60"/>
    </edge>
    <edge id=":J29_12" function="internal">
        <lane id=":J29_12_0" index="0" speed="6.51" length="9.03" shape="289.60,95.20 292.05,94.85 293.80,93.80 294.85,92.05 295.20,89.60"/>
    </edge>
    <edge id=":J29_13" function="internal">
        <lane id=":J29_13_0" index="0" speed="20.00" length="20.80" shape="289.60,95.20 310.40,95.20"/>
        <lane id=":J29_13_1" index="1" speed="20.00" length="20.80" shape="289.60,98.40 310.40,98.40"/>
    </edge>
    <edge id=":J29_15" function="internal">
        <lane id=":J29_15_0" index="0" speed="9.26" length="5.01" shape="289.60,98.40 294.56,99.11"/>
    </edge>
    <edge id=":J29_19" function="internal">
        <lane id=":J29_19_0" index="0" speed="9.26" length="14.34" shape="294.56,99.11 294.85,99.15 298.60,101.40 300.85,105.15 301.60,110.40"/>
    </edge>
    <edge id=":J30_0" function="internal">
        <lane id=":J30_0_0" index="0" speed="6.51" length="9.03" shape="795.20,110.40 794.85,107.95 793.80,106.20 792.05,105.15 789.60,104.80"/>
    </edge>
    <edge id=":J30_1" function="internal">
        <lane id=":J30_1_0" index="0" speed="20.00" length="20.80" shape="795.20,110.40 795.20,89.60"/>
        <lane id=":J30_1_1" index="1" speed="20.00" length="20.80" shape="798.40,110.40 798.40,89.60"/>
    </edge>
    <edge id=":J30_3" function="internal">
        <lane id=":J30_3_0" index="0" speed="9.26" length="5.01" shape="798.40,110.40 799.11,105.44"/>
    </edge>
    <edge id=":J30_16" function="internal">
        <lane id=":J30_16_0" index="0" speed="9.26" length="14.34" shape="799.11,105.44 799.15,105.15 801.40,101.40 805.15,99.15 810.40,98.40"/>
    </edge>
    <edge id=":J30_4" function="internal">
        <lane id=":J30_4_0" index="0" speed="6.51" length="9.03" shape="810.40,104.80 807.95,105.15 806.20,106.20 805.15,107.95 804.80,110.40"/>
    </edge>
    <edge id=":J30_5" function="internal">
        <lane id=":J30_5_0" index="0" speed="20.00" length="20.80" shape="810.40,104.80 789.60,104.80"/>
        <lane id=":J30_5_1" index="1" speed="20.00" length="20.80" shape="810.40,101.60 789.60,101.60"/>
    </edge>
    <edge id=":J30_7" function="internal">
        <lane id=":J30_7_0" index="0" speed="9.26" length="5.01" shape="810.40,101.60 805.44,100.89"/>
    </edge>
    <edge id=":J30_17" function="internal">
        <lane id=":J30_17_0" index="0" speed="9.26" length="14.34" shape="805.44,100.89 805.15,100.85 801.40,98.60 799.15,94.85 798.40,89.60"/>
    </edge>
    <edge id=":J30_8" function="internal">
        <lane id=":J30_8_0" index="0" speed="6.51" length="9.03" shape="804.80,89.60 805.15,92.05 806.20,93.80 807.95,94.85 810.40,95.20"/>
    </edge>
    <edge id=":J30_9" function="internal">
        <lane id=":J30_9_0" index="0" speed="20.00" length="20.80" shape="804.80,89.60 804.80,110.40"/>
        <lane id=":J30_9_1" index="1" speed="20.00" length="20.80" shape="801.60,89.60 801.60,110.40"/>
    </edge>
    <edge id=":J30_11" function="internal">
        <lane id=":J30_11_0" index="0" speed="9.26" length="5.01" shape="801.60,89.60 800.89,94.56"/>
    </edge>
    <edge id=":J30_18" function="internal">
        <lane id=":J30_18_0" index="0" speed="9.26" length="14.34" shape="800.89,94.56 800.85,94.85 798.60,98.60 794.85,100.85 789.60,101.60"/>
    </edge>
    <edge id=":J30_12" function="internal">
        <lane id=":J30_12_0" index="0" speed="6.51" length="9.03" shape="789.60,95.20 792.05,94.85 793.80,93.80 794.85,92.05 795.20,89.60"/>
    </edge>
    <edge id=":J30_13" function="internal">
        <lane id=":J30_13_0" index="0" speed="20.00" length="20.80" shape="789.60,95.20 810.40,95.20"/>
        <lane id=":J30_13_1" index="1" speed="20.00" length="20.80" shape="789.60,98.40 810.40,98.40"/>
    </edge>
    <edge id=":J30_15" function="internal">
        <lane id=":J30_15_0" index="0" speed="9.26" length="5.01" shape="789.60,98.40 794.56,99.11"/>
    </edge>
    <edge id=":J30_19" function="internal">
        <lane id=":J30_19_0" index="0" speed="9.26" length="14.34" shape="794.56,99.11 794.85,99.15 798.60,101.40 800.85,105.15 801.60,110.40"/>
    </edge>
    <edge id=":J33_0" function="internal">
        <lane id=":J33_0_0" index="0" speed="6.51" length="9.03" shape="295.20,-289.60 294.85,-292.05 293.80,-293.80 292.05,-294.85 289.60,-295.20"/>
    </edge>
    <edge id=":J33_1" function="internal">
        <lane id=":J33_1_0" index="0" speed="20.00" length="20.80" shape="295.20,-289.60 295.20,-310.40"/>
        <lane id=":J33_1_1" index="1" speed="20.00" length="20.80" shape="298.40,-289.60 298.40,-310.40"/>
    </edge>
    <edge id=":J33_3" function="internal">
        <lane id=":J33_3_0" index="0" speed="9.26" length="5.01" shape="298.40,-289.60 299.11,-294.56"/>
    </edge>
    <edge id=":J33_16" function="internal">
        <lane id=":J33_16_0" index="0" speed="9.26" length="14.34" shape="299.11,-294.56 299.15,-294.85 301.40,-298.60 305.15,-300.85 310.40,-301.60"/>
    </edge>
    <edge id=":J33_4" function="internal">
        <lane id=":J33_4_0" index="0" speed="6.51" length="9.03" shape="310.40,-295.20 307.95,-294.85 306.20,-293.80 305.15,-292.05 304.80,-289.60"/>
    </edge>
    <edge id=":J33_5" function="internal">
        <lane id=":J33_5_0" index="0" speed="20.00" length="20.80" shape="310.40,-295.20 289.60,-295.20"/>
        <lane id=":J33_5_1" index="1" speed="20.00" length="20.80" shape="310.40,-298.40 289.60,-298.40"/>
    </edge>
    <edge id=":J33_7" function="internal">
        <lane id=":J33_7_0" index="0" speed="9.26" length="5.01" shape="310.40,-298.40 305.44,-299.11"/>
    </edge>
    <edge id=":J33_17" function="internal">
        <lane id=":J33_17_0" index="0" speed="9.26" length="14.34" shape="305.44,-299.11 305.15,-299.15 301.40,-301.40 299.15,-305.15 298.40,-310.40"/>
    </edge>
    <edge id=":J33_8" function="internal">
        <lane id=":J33_8_0" index="0" speed="6.51" length="9.03" shape="304.80,-310.40 305.15,-307.95 306.20,-306.20 307.95,-305.15 310.40,-304.80"/>
    </edge>
    <edge id=":J33_9" function="internal">
        <lane id=":J33_9_0" index="0" speed="20.00" length="20.80" shape="304.80,-310.40 304.80,-289.60"/>
        <lane id=":J33_9_1" index="1" speed="20.00" length="20.80" shape="301.60,-310.40 301.60,-289.60"/>
    </edge>
    <edge id=":J33_11" function="internal">
        <lane id=":J33_11_0" index="0" speed="9.26" length="5.01" shape="301.60,-310.40 300.89,-305.44"/>
    </edge>
    <edge id=":J33_18" function="internal">
        <lane id=":J33_18_0" index="0" speed="9.26" length="14.34" shape="300.89,-305.44 300.85,-305.15 298.60,-301.40 294.85,-299.15 289.60,-298.40"/>
    </edge>
    <edge id=":J33_12" function="internal">
        <lane id=":J33_12_0" index="0" speed="6.51" length="9.03" shape="289.60,-304.80 292.05,-305.15 293.80,-306.20 294.85,-307.95 295.20,-310.40"/>
    </edge>
    <edge id=":J33_13" function="internal">
        <lane id=":J33_13_0" index="0" speed="20.00" length="20.80" shape="289.60,-304.80 310.40,-304.80"/>
        <lane id=":J33_13_1" index="1" speed="20.00" length="20.80" shape="289.60,-301.60 310.40,-301.60"/>
    </edge>
    <edge id=":J33_15" function="internal">
        <lane id=":J33_15_0" index="0" speed="9.26" length="5.01" shape="289.60,-301.60 294.56,-300.89"/>
    </edge>
    <edge id=":J33_19" function="internal">
        <lane id=":J33_19_0" index="0" speed="9.26" length="14.34" shape="294.56,-300.89 294.85,-300.85 298.60,-298.60 300.85,-294.85 301.60,-289.60"/>
    </edge>

    <edge id="-E23" from="J28" to="J27" priority="-1">
        <lane id="-E23_0" index="0" speed="20.00" length="89.60" shape="-210.40,104.80 -300.00,104.80"/>
        <lane id="-E23_1" index="1" speed="20.00" length="89.60" shape="-210.40,101.60 -300.00,101.60"/>
    </edge>
    <edge id="-E24" from="J29" to="J28" priority="-1">
        <lane id="-E24_0" index="0" speed="20.00" length="479.20" shape="289.60,104.80 -189.60,104.80"/>
        <lane id="-E24_1" index="1" speed="20.00" length="479.20" shape="289.60,101.60 -189.60,101.60"/>
    </edge>
    <edge id="-E25" from="J30" to="J29" priority="-1">
        <lane id="-E25_0" index="0" speed="20.00" length="479.20" shape="789.60,104.80 310.40,104.80"/>
        <lane id="-E25_1" index="1" speed="20.00" length="479.20" shape="789.60,101.60 310.40,101.60"/>
    </edge>
    <edge id="-E26" from="J31" to="J30" priority="-1">
        <lane id="-E26_0" index="0" speed="20.00" length="89.60" shape="900.00,104.80 810.40,104.80"/>
        <lane id="-E26_1" index="1" speed="20.00" length="89.60" shape="900.00,101.60 810.40,101.60"/>
    </edge>
    <edge id="-E27" from="J29" to="J32" priority="-1">
        <lane id="-E27_0" index="0" speed="20.00" length="89.60" shape="304.80,110.40 304.80,200.00"/>
        <lane id="-E27_1" index="1" speed="20.00" length="89.60" shape="301.60,110.40 301.60,200.00"/>
    </edge>
    <edge id="-E28" from="J33" to="J29" priority="-1">
        <lane id="-E28_0" index="0" speed="20.00" length="379.20" shape="304.80,-289.60 304.80,89.60"/>
        <lane id="-E28_1" index="1" speed="20.00" length="379.20" shape="301.60,-289.60 301.60,89.60"/>
    </edge>
    <edge id="-E29" from="J34" to="J33" priority="-1">
        <lane id="-E29_0" index="0" speed="20.00" length="89.60" shape="304.80,-400.00 304.80,-310.40"/>
        <lane id="-E29_1" index="1" speed="20.00" length="89.60" shape="301.60,-400.00 301.60,-310.40"/>
    </edge>
    <edge id="-E30" from="J35" to="J33" priority="-1">
        <lane id="-E30_0" index="0" speed="20.00" length="89.60" shape="400.00,-295.20 310.40,-295.20"/>
        <lane id="-E30_1" index="1" speed="20.00" length="89.60" shape="400.00,-298.40 310.40,-298.40"/>
    </edge>
    <edge id="-E31" from="J36" to="J33" priority="-1">
        <lane id="-E31_0" index="0" speed="20.00" length="89.60" shape="200.00,-304.80 289.60,-304.80"/>
        <lane id="-E31_1" index="1" speed="20.00" length="89.60" shape="200.00,-301.60 289.60,-301.60"/>
    </edge>
    <edge id="-E32" from="J30" to="J37" priority="-1">
        <lane id="-E32_0" index="0" speed="20.00" length="89.60" shape="804.80,110.40 804.80,200.00"/>
        <lane id="-E32_1" index="1" speed="20.00" length="89.60" shape="801.60,110.40 801.60,200.00"/>
    </edge>
    <edge id="-E33" from="J38" to="J30" priority="-1">
        <lane id="-E33_0" index="0" speed="20.00" length="89.60" shape="804.80,0.00 804.80,89.60"/>
        <lane id="-E33_1" index="1" speed="20.00" length="89.60" shape="801.60,0.00 801.60,89.60"/>
    </edge>
    <edge id="-E34" from="J28" to="J39" priority="-1">
        <lane id="-E34_0" index="0" speed="20.00" length="89.60" shape="-195.20,110.40 -195.20,200.00"/>
        <lane id="-E34_1" index="1" speed="20.00" length="89.60" shape="-198.40,110.40 -198.40,200.00"/>
    </edge>
    <edge id="-E35" from="J40" to="J28" priority="-1">
        <lane id="-E35_0" index="0" speed="20.00" length="89.60" shape="-195.20,0.00 -195.20,89.60"/>
        <lane id="-E35_1" index="1" speed="20.00" length="89.60" shape="-198.40,0.00 -198.40,89.60"/>
    </edge>
    <edge id="E23" from="J27" to="J28" priority="-1">
        <lane id="E23_0" index="0" speed="20.00" length="89.60" shape="-300.00,95.20 -210.40,95.20"/>
        <lane id="E23_1" index="1" speed="20.00" length="89.60" shape="-300.00,98.40 -210.40,98.40"/>
    </edge>
    <edge id="E24" from="J28" to="J29" priority="-1">
        <lane id="E24_0" index="0" speed="20.00" length="479.20" shape="-189.60,95.20 289.60,95.20"/>
        <lane id="E24_1" index="1" speed="20.00" length="479.20" shape="-189.60,98.40 289.60,98.40"/>
    </edge>
    <edge id="E25" from="J29" to="J30" priority="-1">
        <lane id="E25_0" index="0" speed="20.00" length="479.20" shape="310.40,95.20 789.60,95.20"/>
        <lane id="E25_1" index="1" speed="20.00" length="479.20" shape="310.40,98.40 789.60,98.40"/>
    </edge>
    <edge id="E26" from="J30" to="J31" priority="-1">
        <lane id="E26_0" index="0" speed="20.00" length="89.60" shape="810.40,95.20 900.00,95.20"/>
        <lane id="E26_1" index="1" speed="20.00" length="89.60" shape="810.40,98.40 900.00,98.40"/>
    </edge>
    <edge id="E27" from="J32" to="J29" priority="-1">
        <lane id="E27_0" index="0" speed="20.00" length="89.60" shape="295.20,200.00 295.20,110.40"/>
        <lane id="E27_1" index="1" speed="20.00" length="89.60" shape="298.40,200.00 298.40,110.40"/>
    </edge>
    <edge id="E28" from="J29" to="J33" priority="-1">
        <lane id="E28_0" index="0" speed="20.00" length="379.20" shape="295.20,89.60 295.20,-289.60"/>
        <lane id="E28_1" index="1" speed="20.00" length="379.20" shape="298.40,89.60 298.40,-289.60"/>
    </edge>
    <edge id="E29" from="J33" to="J34" priority="-1">
        <lane id="E29_0" index="0" speed="20.00" length="89.60" shape="295.20,-310.40 295.20,-400.00"/>
        <lane id="E29_1" index="1" speed="20.00" length="89.60" shape="298.40,-310.40 298.40,-400.00"/>
    </edge>
    <edge id="E30" from="J33" to="J35" priority="-1">
        <lane id="E30_0" index="0" speed="20.00" length="89.60" shape="310.40,-304.80 400.00,-304.80"/>
        <lane id="E30_1" index="1" speed="20.00" length="89.60" shape="310.40,-301.60 400.00,-301.60"/>
    </edge>
    <edge id="E31" from="J33" to="J36" priority="-1">
        <lane id="E31_0" index="0" speed="20.00" length="89.60" shape="289.60,-295.20 200.00,-295.20"/>
        <lane id="E31_1" index="1" speed="20.00" length="89.60" shape="289.60,-298.40 200.00,-298.40"/>
    </edge>
    <edge id="E32" from="J37" to="J30" priority="-1">
        <lane id="E32_0" index="0" speed="20.00" length="89.60" shape="795.20,200.00 795.20,110.40"/>
        <lane id="E32_1" index="1" speed="20.00" length="89.60" shape="798.40,200.00 798.40,110.40"/>
    </edge>
    <edge id="E33" from="J30" to="J38" priority="-1">
        <lane id="E33_0" index="0" speed="20.00" length="89.60" shape="795.20,89.60 795.20,0.00"/>
        <lane id="E33_1" index="1" speed="20.00" length="89.60" shape="798.40,89.60 798.40,0.00"/>
    </edge>
    <edge id="E34" from="J39" to="J28" priority="-1">
        <lane id="E34_0" index="0" speed="20.00" length="89.60" shape="-204.80,200.00 -204.80,110.40"/>
        <lane id="E34_1" index="1" speed="20.00" length="89.60" shape="-201.60,200.00 -201.60,110.40"/>
    </edge>
    <edge id="E35" from="J28" to="J40" priority="-1">
        <lane id="E35_0" index="0" speed="20.00" length="89.60" shape="-204.80,89.60 -204.80,0.00"/>
        <lane id="E35_1" index="1" speed="20.00" length="89.60" shape="-201.60,89.60 -201.60,0.00"/>
    </edge>

    <tlLogic id="J28" type="static" programID="0" offset="0">
        <phase duration="40" state="GGGgrrrrGGGgrrrr"/>
        <phase duration="5"  state="yyyyrrrryyyyrrrr"/>
        <phase duration="40" state="rrrrGGGgrrrrGGGg"/>
        <phase duration="5"  state="rrrryyyyrrrryyyy"/>
    </tlLogic>
    <tlLogic id="J29" type="static" programID="0" offset="0">
        <phase duration="40" state="GGGgrrrrGGGgrrrr"/>
        <phase duration="5"  state="yyyyrrrryyyyrrrr"/>
        <phase duration="40" state="rrrrGGGgrrrrGGGg"/>
        <phase duration="5"  state="rrrryyyyrrrryyyy"/>
    </tlLogic>
    <tlLogic id="J30" type="static" programID="0" offset="0">
        <phase duration="40" state="GGGgrrrrGGGgrrrr"/>
        <phase duration="5"  state="yyyyrrrryyyyrrrr"/>
        <phase duration="40" state="rrrrGGGgrrrrGGGg"/>
        <phase duration="5"  state="rrrryyyyrrrryyyy"/>
    </tlLogic>
    <tlLogic id="J33" type="static" programID="0" offset="0">
        <phase duration="40" state="GGGgrrrrGGGgrrrr"/>
        <phase duration="5"  state="yyyyrrrryyyyrrrr"/>
        <phase duration="40" state="rrrrGGGgrrrrGGGg"/>
        <phase duration="5"  state="rrrryyyyrrrryyyy"/>
    </tlLogic>

    <junction id="J27" type="dead_end" x="-300.00" y="100.00" incLanes="-E23_0 -E23_1" intLanes="" shape="-300.00,100.00 -300.00,106.40 -300.00,100.00"/>
    <junction id="J28" type="traffic_light" x="-200.00" y="100.00" incLanes="E34_0 E34_1 -E24_0 -E24_1 -E35_0 -E35_1 E23_0 E23_1" intLanes=":J28_0_0 :J28_1_0 :J28_1_1 :J28_16_0 :J28_4_0 :J28_5_0 :J28_5_1 :J28_17_0 :J28_8_0 :J28_9_0 :J28_9_1 :J28_18_0 :J28_12_0 :J28_13_0 :J28_13_1 :J28_19_0" shape="-206.40,110.40 -193.60,110.40 -193.16,108.18 -192.60,107.40 -191.82,106.84 -190.82,106.51 -189.60,106.40 -189.60,93.60 -191.82,93.16 -192.60,92.60 -193.16,91.82 -193.49,90.82 -193.60,89.60 -206.40,89.60 -206.84,91.82 -207.40,92.60 -208.18,93.16 -209.18,93.49 -210.40,93.60 -210.40,106.40 -208.18,106.84 -207.40,107.40 -206.84,108.18 -206.51,109.18">
        <request index="0"  response="0000000000000000" foes="0000000001100000" cont="0"/>
        <request index="1"  response="1000000010000000" foes="1111100011100000" cont="0"/>
        <request index="2"  response="1000000010000000" foes="1111100011100000" cont="0"/>
        <request index="3"  response="1000011010000000" foes="1110011011100000" cont="1"/>
        <request index="4"  response="0000011000000000" foes="0000011000000000" cont="0"/>
        <request index="5"  response="0000111000001111" foes="1000111000001111" cont="0"/>
        <request index="6"  response="0000111000001111" foes="1000111000001111" cont="0"/>
        <request index="7"  response="0110111000001110" foes="0110111000001110" cont="1"/>
        <request index="8"  response="0000000000000000" foes="0110000000000000" cont="0"/>
        <request index="9"  response="1000000010000000" foes="1110000011111000" cont="0"/>
        <request index="10" response="1000000010000000" foes="1110000011111000" cont="0"/>
        <request index="11" response="1000000010000110" foes="1110000011100110" cont="1"/>
        <request index="12" response="0000000000000110" foes="0000000000000110" cont="0"/>
        <request index="13" response="0000111100001110" foes="0000111110001110" cont="0"/>
        <request index="14" response="0000111100001110" foes="0000111110001110" cont="0"/>
        <request index="15" response="0000111001101110" foes="0000111001101110" cont="1"/>
    </junction>
    <junction id="J29" type="traffic_light" x="300.00" y="100.00" incLanes="E27_0 E27_1 -E25_0 -E25_1 -E28_0 -E28_1 E24_0 E24_1" intLanes=":J29_0_0 :J29_1_0 :J29_1_1 :J29_16_0 :J29_4_0 :J29_5_0 :J29_5_1 :J29_17_0 :J29_8_0 :J29_9_0 :J29_9_1 :J29_18_0 :J29_12_0 :J29_13_0 :J29_13_1 :J29_19_0" shape="293.60,110.40 306.40,110.40 306.84,108.18 307.40,107.40 308.18,106.84 309.18,106.51 310.40,106.40 310.40,93.60 308.18,93.16 307.40,92.60 306.84,91.82 306.51,90.82 306.40,89.60 293.60,89.60 293.16,91.82 292.60,92.60 291.82,93.16 290.82,93.49 289.60,93.60 289.60,106.40 291.82,106.84 292.60,107.40 293.16,108.18 293.49,109.18">
        <request index="0"  response="0000000000000000" foes="0000000001100000" cont="0"/>
        <request index="1"  response="1000000010000000" foes="1111100011100000" cont="0"/>
        <request index="2"  response="1000000010000000" foes="1111100011100000" cont="0"/>
        <request index="3"  response="1000011010000000" foes="1110011011100000" cont="1"/>
        <request index="4"  response="0000011000000000" foes="0000011000000000" cont="0"/>
        <request index="5"  response="0000111000001111" foes="1000111000001111" cont="0"/>
        <request index="6"  response="0000111000001111" foes="1000111000001111" cont="0"/>
        <request index="7"  response="0110111000001110" foes="0110111000001110" cont="1"/>
        <request index="8"  response="0000000000000000" foes="0110000000000000" cont="0"/>
        <request index="9"  response="1000000010000000" foes="1110000011111000" cont="0"/>
        <request index="10" response="1000000010000000" foes="1110000011111000" cont="0"/>
        <request index="11" response="1000000010000110" foes="1110000011100110" cont="1"/>
        <request index="12" response="0000000000000110" foes="0000000000000110" cont="0"/>
        <request index="13" response="0000111100001110" foes="0000111110001110" cont="0"/>
        <request index="14" response="0000111100001110" foes="0000111110001110" cont="0"/>
        <request index="15" response="0000111001101110" foes="0000111001101110" cont="1"/>
    </junction>
    <junction id="J30" type="traffic_light" x="800.00" y="100.00" incLanes="E32_0 E32_1 -E26_0 -E26_1 -E33_0 -E33_1 E25_0 E25_1" intLanes=":J30_0_0 :J30_1_0 :J30_1_1 :J30_16_0 :J30_4_0 :J30_5_0 :J30_5_1 :J30_17_0 :J30_8_0 :J30_9_0 :J30_9_1 :J30_18_0 :J30_12_0 :J30_13_0 :J30_13_1 :J30_19_0" shape="793.60,110.40 806.40,110.40 806.84,108.18 807.40,107.40 808.18,106.84 809.18,106.51 810.40,106.40 810.40,93.60 808.18,93.16 807.40,92.60 806.84,91.82 806.51,90.82 806.40,89.60 793.60,89.60 793.16,91.82 792.60,92.60 791.82,93.16 790.82,93.49 789.60,93.60 789.60,106.40 791.82,106.84 792.60,107.40 793.16,108.18 793.49,109.18">
        <request index="0"  response="0000000000000000" foes="0000000001100000" cont="0"/>
        <request index="1"  response="1000000010000000" foes="1111100011100000" cont="0"/>
        <request index="2"  response="1000000010000000" foes="1111100011100000" cont="0"/>
        <request index="3"  response="1000011010000000" foes="1110011011100000" cont="1"/>
        <request index="4"  response="0000011000000000" foes="0000011000000000" cont="0"/>
        <request index="5"  response="0000111000001111" foes="1000111000001111" cont="0"/>
        <request index="6"  response="0000111000001111" foes="1000111000001111" cont="0"/>
        <request index="7"  response="0110111000001110" foes="0110111000001110" cont="1"/>
        <request index="8"  response="0000000000000000" foes="0110000000000000" cont="0"/>
        <request index="9"  response="1000000010000000" foes="1110000011111000" cont="0"/>
        <request index="10" response="1000000010000000" foes="1110000011111000" cont="0"/>
        <request index="11" response="1000000010000110" foes="1110000011100110" cont="1"/>
        <request index="12" response="0000000000000110" foes="0000000000000110" cont="0"/>
        <request index="13" response="0000111100001110" foes="0000111110001110" cont="0"/>
        <request index="14" response="0000111100001110" foes="0000111110001110" cont="0"/>
        <request index="15" response="0000111001101110" foes="0000111001101110" cont="1"/>
    </junction>
    <junction id="J31" type="dead_end" x="900.00" y="100.00" incLanes="E26_0 E26_1" intLanes="" shape="900.00,100.00 900.00,93.60 900.00,100.00"/>
    <junction id="J32" type="dead_end" x="300.00" y="200.00" incLanes="-E27_0 -E27_1" intLanes="" shape="300.00,200.00 306.40,200.00 300.00,200.00"/>