<?xml version="1.0" encoding="UTF-8"?>

<!-- generated on 2023-12-27 17:16:28.017883 by randomTrips.py v1_18_0+0000-03ecfdea036
<configuration>
    <net-file value="road_network.net.xml"/>
    <route-file value="road_network_map.rou.xml"/>
    <fringe-factor value="MAX"/>
    <validate value="True"/>
    <end value="400.0"/>
    <period value="0.5"/>
</configuration>
-->

<!-- generated on 2023-12-27 17:16:27 by Eclipse SUMO duarouter Version 1.18.0
<configuration xmlns:xsi="http://www.w3.org/2001/XMLSchema-instance" xsi:noNamespaceSchemaLocation="http://sumo.dlr.de/xsd/duarouterConfiguration.xsd">

    <input>
        <net-file value="road_network.net.xml"/>
        <route-files value="trips.trips.xml"/>
    </input>

    <output>
        <output-file value="trips.trips.xml.tmp"/>
        <alternatives-output value="NUL"/>
        <write-trips value="true"/>
    </output>

    <time>
        <begin value="0"/>
        <end value="400.0"/>
    </time>

    <report>
        <no-warnings value="true"/>
        <ignore-errors value="true"/>
        <no-step-log value="true"/>
    </report>

</configuration>
-->

<routes xmlns:xsi="http://www.w3.org/2001/XMLSchema-instance" xsi:noNamespaceSchemaLocation="http://sumo.dlr.de/xsd/routes_file.xsd">
    <trip id="1" depart="0.50" from="-E30" to="-E32"/>
    <trip id="2" depart="1.00" from="E27" to="E30"/>
    <trip id="3" depart="1.50" from="E32" to="-E23"/>
    <trip id="4" depart="2.00" from="-E33" to="-E23"/>
    <trip id="5" depart="2.50" from="-E30" to="E29"/>
    <trip id="6" depart="3.00" from="-E26" to="-E27"/>
    <trip id="7" depart="3.50" from="E23" to="E29"/>
    <trip id="8" depart="4.00" from="-E30" to="E29"/>
    <trip id="9" depart="4.50" from="E32" to="-E23"/>
    <trip id="10" depart="5.00" from="E32" to="E30"/>
    <trip id="11" depart="5.50" from="-E31" to="-E27"/>
    <trip id="13" depart="6.50" from="-E26" to="-E23"/>
    <trip id="14" depart="7.00" from="E32" to="E30"/>
    <trip id="15" depart="7.50" from="E32" to="E31"/>
    <trip id="17" depart="8.50" from="-E31" to="E29"/>
    <trip id="18" depart="9.00" from="E32" to="E30"/>
    <trip id="19" depart="9.50" from="E32" to="E29"/>
    <trip id="20" depart="10.00" from="E27" to="-E23"/>
    <trip id="21" depart="10.50" from="-E30" to="-E32"/>
    <trip id="22" depart="11.00" from="-E26" to="-E32"/>
    <trip id="23" depart="11.50" from="-E29" to="-E32"/>
    <trip id="24" depart="12.00" from="E23" to="-E34"/>
    <trip id="25" depart="12.50" from="-E31" to="-E32"/>
    <trip id="26" depart="13.00" from="-E30" to="E35"/>
    <trip id="27" depart="13.50" from="E23" to="E30"/>
    <trip id="28" depart="14.00" from="-E29" to="E31"/>
    <trip id="29" depart="14.50" from="-E29" to="-E34"/>
    <trip id="30" depart="15.00" from="E34" to="E30"/>
    <trip id="31" depart="15.50" from="-E35" to="E30"/>
    <trip id="32" depart="16.00" from="E32" to="E31"/>
    <trip id="33" depart="16.50" from="-E30" to="-E23"/>
    <trip id="34" depart="17.00" from="-E31" to="-E32"/>
    <trip id="35" depart="17.50" from="-E30" to="E35"/>
    <trip id="36" depart="18.00" from="E32" to="-E34"/>
    <trip id="37" depart="18.50" from="E23" to="-E34"/>
    <trip id="38" depart="19.00" from="E34" to="E26"/>
    <trip id="39" depart="19.50" from="-E30" to="-E32"/>
    <trip id="40" depart="20.00" from="-E35" to="-E32"/>
    <trip id="41" depart="20.50" from="-E35" to="E33"/>
    <trip id="42" depart="21.00" from="-E31" to="-E32"/>
    <trip id="43" depart="21.50" from="E34" to="E29"/>
    <trip id="44" depart="22.00" from="-E26" to="-E23"/>
    <trip id="45" depart="22.50" from="-E29" to="E30"/>
    <trip id="46" depart="23.00" from="E27" to="E26"/>
    <trip id="47" depart="23.50" from="-E26" to="-E34"/>
    <trip id="48" depart="24.00" from="E34" to="E29"/>
    <trip id="49" depart="24.50" from="E34" to="E33"/>
    <trip id="50" depart="25.00" from="-E26" to="E31"/>
    <trip id="51" depart="25.50" from="E23" to="E29"/>
    <trip id="53" depart="26.50" from="-E29" to="E26"/>
    <trip id="54" depart="27.00" from="-E33" to="E35"/>
    <trip id="56" depart="28.00" from="-E35" to="-E27"/>
    <trip id="57" depart="28.50" from="E34" to="E33"/>
    <trip id="59" depart="29.50" from="E23" to="-E27"/>
    <trip id="60" depart="30.00" from="E27" to="E29"/>
    <trip id="61" depart="30.50" from="E27" to="E29"/>
    <trip id="62" depart="31.00" from="-E26" to="-E34"/>
    <trip id="63" depart="31.50" from="-E26" to="E35"/>
    <trip id="64" depart="32.00" from="E32" to="E33"/>
    <trip id="65" depart="32.50" from="-E31" to="-E23"/>
    <trip id="66" depart="33.00" from="E32" to="E35"/>
    <trip id="68" depart="34.00" from="-E26" to="E31"/>
    <trip id="70" depart="35.00" from="-E33" to="E29"/>
    <trip id="71" depart="35.50" from="-E30" to="E33"/>
    <trip id="72" depart="36.00" from="-E33" to="-E32"/>
    <trip id="73" depart="36.50" from="-E35" to="E31"/>
    <trip id="74" depart="37.00" from="-E30" to="-E34"/>
    <trip id="75" depart="37.50" from="E34" to="E30"/>
    <trip id="76" depart="38.00" from="-E33" to="E29"/>
    <trip id="77" depart="38.50" from="-E29" to="-E32"/>
    <trip id="78" depart="39.00" from="-E31" to="E29"/>
    <trip id="79" depart="39.50" from="-E30" to="-E32"/>
    <trip id="80" depart="40.00" from="-E26" to="E30"/>
    <trip id="81" depart="40.50" from="-E30" to="E35"/>
    <trip id="82" depart="41.00" from="E32" to="-E23"/>
    <trip id="84" depart="42.00" from="-E30" to="-E27"/>
    <trip id="85" depart="42.50" from="E34" to="E29"/>
    <trip id="86" depart="43.00" from="-E33" to="E31"/>
    <trip id="87" depart="43.50" from="E32" to="-E27"/>
    <trip id="89" depart="44.50" from="-E33" to="E26"/>
    <trip id="90" depart="45.00" from="E27" to="E30"/>
    <trip id="91" depart="45.50" from="E34" to="-E23"/>
    <trip id="92" depart="46.00" from="-E33" to="-E34"/>
    <trip id="94" depart="47.00" from="-E29" to="E26"/>
    <trip id="95" depart="47.50" from="-E33" to="-E32"/>
    <trip id="96" depart="48.00" from="-E30" to="E35"/>
    <trip id="98" depart="49.00" from="-E35" to="-E23"/>
    <trip id="99" depart="49.50" from="E34" to="E33"/>
    <trip id="100" depart="50.00" from="E34" to="E35"/>
    <trip id="101" depart="50.50" from="E32" to="-E27"/>
    <trip id="102" depart="51.00" from="-E33" to="-E32"/>
    <trip id="103" depart="51.50" from="-E33" to="-E23"/>
    <trip id="104" depart="52.00" from="-E31" to="E35"/>
    <trip id="105" depart="52.50" from="-E30" to="E31"/>
    <trip id="106" depart="53.00" from="-E33" to="E26"/>
    <trip id="107" depart="53.50" from="E34" to="E35"/>
    <trip id="108" depart="54.00" from="-E35" to="E31"/>
    <trip id="109" depart="54.50" from="-E29" to="-E32"/>
    <trip id="110" depart="55.00" from="E34" to="E29"/>
    <trip id="111" depart="55.50" from="-E35" to="E31"/>
    <trip id="112" depart="56.00" from="-E26" to="E29"/>
    <trip id="113" depart="56.50" from="-E35" to="E33"/>
    <trip id="114" depart="57.00" from="-E29" to="E35"/>
    <trip id="115" depart="57.50" from="-E26" to="-E27"/>
    <trip id="116" depart="58.00" from="-E35" to="E30"/>
    <trip id="117" depart="58.50" from="-E30" to="-E27"/>
    <trip id="119" depart="59.50" from="-E35" to="E30"/>
    <trip id="120" depart="60.00" from="-E33" to="E29"/>
    <trip id="122" depart="61.00" from="-E30" to="E31"/>
    <trip id="123" depart="61.50" from="-E30" to="-E34"/>
    <trip id="124" depart="62.00" from="E23" to="-E32"/>
    <trip id="127" depart="63.50" from="E34" to="E35"/>
    <trip id="128" depart="64.00" from="-E26" to="-E32"/>
    <trip id="129" depart="64.50" from="-E30" to="E35"/>
    <trip id="130" depart="65.00" from="E32" to="E33"/>
    <trip id="131" depart="65.50" from="-E31" to="-E27"/>
    <trip id="132" depart="66.00" from="E32" to="E31"/>
    <trip id="133" depart="66.50" from="E23" to="E35"/>
    <trip id="136" depart="68.00" from="E23" to="E35"/>
    <trip id="137" depart="68.50" from="-E29" to="-E27"/>
    <trip id="140" depart="70.00" from="E27" to="-E32"/>
    <trip id="141" depart="70.50" from="E23" to="-E32"/>
    <trip id="142" depart="71.00" from="-E33" to="E35"/>
    <trip id="143" depart="71.50" from="E32" to="-E23"/>
    <trip id="144" depart="72.00" from="-E33" to="-E32"/>
    <trip id="145" depart="72.50" from="-E26" to="E31"/>
    <trip id="146" depart="73.00" from="E23" to="-E32"/>
    <trip id="147" depart="73.50" from="E27" to="E29"/>
    <trip id="148" depart="74.00" from="-E33" to="-E23"/>
    <trip id="149" depart="74.50" from="-E26" to="E33"/>
    <trip id="150" depart="75.00" from="E34" to="E29"/>
    <trip id="151" depart="75.50" from="E32" to="E29"/>
    <trip id="152" depart="76.00" from="-E29" to="-E27"/>
    <trip id="153" depart="76.50" from="-E31" to="E33"/>
    <trip id="154" depart="77.00" from="E27" to="E33"/>
    <trip id="156" depart="78.00" from="-E30" to="-E27"/>
    <trip id="157" depart="78.50" from="E27" to="E33"/>
    <trip id="158" depart="79.00" from="-E33" to="E30"/>
    <trip id="159" depart="79.50" from="-E29" to="E35"/>
    <trip id="160" depart="80.00" from="E32" to="E35"/>
    <trip id="161" depart="80.50" from="E32" to="E33"/>
    <trip id="162" depart="81.00" from="-E26" to="E31"/>
    <trip id="163" depart="81.50" from="-E31" to="E35"/>
    <trip id="164" depart="82.00" from="E32" to="E33"/>
    <trip id="167" depart="83.50" from="E32" to="E33"/>
    <trip id="168" depart="84.00" from="-E30" to="E33"/>
    <trip id="169" depart="84.50" from="-E33" to="-E34"/>
    <trip id="170" depart="85.00" from="E27" to="-E32"/>
    <trip id="171" depart="85.50" from="-E26" to="-E27"/>
    <trip id="172" depart="86.00" from="-E31" to="E33"/>
    <trip id="173" depart="86.50" from="E34" to="-E32"/>
    <trip id="174" depart="87.00" from="E23" to="-E34"/>
    <trip id="175" depart="87.50" from="E34" to="E29"/>
    <trip id="176" depart="88.00" from="E34" to="-E27"/>
    <trip id="177" depart="88.50" from="E34" to="-E27"/>
    <trip id="178" depart="89.00" from="E34" to="-E32"/>
    <trip id="179" depart="89.50" from="-E29" to="E26"/>
    <trip id="180" depart="90.00" from="E27" to="-E34"/>
    <trip id="181" depart="90.50" from="E23" to="E29"/>
    <trip id="182" depart="91.00" from="-E31" to="E29"/>
    <trip id="183" depart="91.50" from="-E30" to="E31"/>
    <trip id="184" depart="92.00" from="-E26" to="E35"/>
    <trip id="185" depart="92.50" from="-E35" to="E31"/>
    <trip id="186" depart="93.00" from="E27" to="E30"/>
    <trip id="187" depart="93.50" from="-E31" to="-E23"/>
    <trip id="188" depart="94.00" from="E23" to="-E34"/>
    <trip id="189" depart="94.50" from="-E31" to="E33"/>
    <trip id="190" depart="95.00" from="E27" to="-E34"/>
    <trip id="191" depart="95.50" from="-E31" to="E26"/>
    <trip id="192" depart="96.00" from="-E33" to="-E32"/>
    <trip id="193" depart="96.50" from="-E29" to="E26"/>
    <trip id="194" depart="97.00" from="E34" to="E30"/>
    <trip id="195" depart="97.50" from="E34" to="E30"/>
    <trip id="196" depart="98.00" from="-E31" to="E29"/>
    <trip id="197" depart="98.50" from="-E26" to="-E32"/>
    <trip id="198" depart="99.00" from="-E33" to="E29"/>
    <trip id="199" depart="99.50" from="E23" to="E26"/>
    <trip id="200" depart="100.00" from="-E33" to="-E32"/>
    <trip id="201" depart="100.50" from="-E33" to="E35"/>
    <trip id="203" depart="101.50" from="-E26" to="E29"/>
    <trip id="204" depart="102.00" from="E23" to="-E34"/>
    <trip id="205" depart="102.50" from="E32" to="E31"/>
    <trip id="206" depart="103.00" from="E23" to="-E32"/>
    <trip id="207" depart="103.50" from="-E29" to="-E23"/>
    <trip id="208" depart="104.00" from="-E30" to="E26"/>
    <trip id="209" depart="104.50" from="E32" to="-E23"/>
    <trip id="210" depart="105.00" from="-E33" to="E30"/>
    <trip id="211" depart="105.50" from="-E29" to="E30"/>
    <trip id="212" depart="106.00" from="-E33" to="-E32"/>
    <trip id="214" depart="107.00" from="E27" to="E31"/>
    <trip id="215" depart="107.50" from="-E29" to="E26"/>
    <trip id="216" depart="108.00" from="-E29" to="E35"/>
    <trip id="217" depart="108.50" from="-E35" to="-E23"/>
    <trip id="218" depart="109.00" from="-E30" to="E33"/>
    <trip id="220" depart="110.00" from="E23" to="E35"/>
    <trip id="222" depart="111.00" from="E32" to="E30"/>
    <trip id="223" depart="111.50" from="E27" to="E29"/>
    <trip id="224" depart="112.00" from="E32" to="E29"/>
    <trip id="225" depart="112.50" from="E32" to="E31"/>
    <trip id="226" depart="113.00" from="-E33" to="-E32"/>
    <trip id="228" depart="114.00" from="E27" to="E29"/>
    <trip id="229" depart="114.50" from="E23" to="-E32"/>
    <trip id="230" depart="115.00" from="-E26" to="-E32"/>
    <trip id="231" depart="115.50" from="-E30" to="-E34"/>
    <trip id="232" depart="116.00" from="-E35" to="-E27"/>
    <trip id="234" depart="117.00" from="E27" to="-E23"/>
    <trip id="235" depart="117.50" from="-E33" to="E29"/>
    <trip id="236" depart="118.00" from="-E33" to="-E32"/>
    <trip id="237" depart="118.50" from="-E33" to="E35"/>
    <trip id="238" depart="119.00" from="-E35" to="E30"/>
    <trip id="239" depart="119.50" from="E32" to="E31"/>
    <trip id="240" depart="120.00" from="-E31" to="-E23"/>
    <trip id="242" depart="121.00" from="E32" to="E35"/>
    <trip id="243" depart="121.50" from="-E33" to="E31"/>
    <trip id="244" depart="122.00" from="-E35" to="E30"/>
    <trip id="245" depart="122.50" from="-E30" to="-E32"/>
    <trip id="246" depart="123.00" from="-E33" to="-E23"/>
    <trip id="247" depart="123.50" from="-E31" to="E30"/>
    <trip id="248" depart="124.00" from="-E33" to="-E27"/>
    <trip id="249" depart="124.50" from="-E33" to="-E27"/>
    <trip id="251" depart="125.50" from="-E31" to="E29"/>
    <trip id="252" depart="126.00" from="-E26" to="E30"/>
    <trip id="253" depart="126.50" from="-E29" to="E26"/>
    <trip id="254" depart="127.00" from="-E26" to="-E34"/>
    <trip id="255" depart="127.50" from="-E30" to="-E34"/>
    <trip id="256" depart="128.00" from="E27" to="-E34"/>
    <trip id="257" depart="128.50" from="E27" to="E33"/>
    <trip id="258" depart="129.00" from="-E30" to="-E23"/>
    <trip id="259" depart="129.50" from="-E26" to="E29"/>
    <trip id="261" depart="130.50" from="E23" to="E31"/>
    <trip id="262" depart="131.00" from="E23" to="E31"/>
    <trip id="263" depart="131.50" from="E34" to="-E27"/>
    <trip id="264" depart="132.00" from="-E26" to="-E27"/>
    <trip id="265" depart="132.50" from="-E29" to="E30"/>
    <trip id="266" depart="133.00" from="-E35" to="-E32"/>
    <trip id="267" depart="133.50" from="E23" to="E31"/>
    <trip id="268" depart="134.00" from="-E29" to="E30"/>
    <trip id="270" depart="135.00" from="E32" to="E35"/>
    <trip id="271" depart="135.50" from="-E29" to="-E23"/>
    <trip id="272" depart="136.00" from="-E31" to="E30"/>
    <trip id="274" depart="137.00" from="E27" to="-E23"/>
    <trip id="275" depart="137.50" from="E23" to="E30"/>
    <trip id="276" depart="138.00" from="-E29" to="E31"/>
    <trip id="277" depart="138.50" from="E32" to="E30"/>
    <trip id="278" depart="139.00" from="-E29" to="E35"/>
    <trip id="279" depart="139.50" from="E27" to="-E34"/>
    <trip id="280" depart="140.00" from="-E33" to="-E34"/>
    <trip id="281" depart="140.50" from="-E35" to="-E34"/>
    <trip id="282" depart="141.00" from="E32" to="E33"/>
    <trip id="283" depart="141.50" from="-E29" to="E35"/>
    <trip id="284" depart="142.00" from="E23" to="E33"/>
    <trip id="285" depart="142.50" from="E27" to="E26"/>
    <trip id="286" depart="143.00" from="E27" to="E35"/>
    <trip id="287" depart="143.50" from="-E30" to="E33"/>
    <trip id="288" depart="144.00" from="-E35" to="E26"/>
    <trip id="289" depart="144.50" from="-E33" to="E31"/>
    <trip id="290" depart="145.00" from="-E30" to="E33"/>
    <trip id="291" depart="145.50" from="E32" to="-E23"/>
    <trip id="293" depart="146.50" from="-E33" to="E30"/>
    <trip id="294" depart="147.00" from="-E31" to="-E23"/>
    <trip id="295" depart="147.50" from="E32" to="-E27"/>
    <trip id="296" depart="148.00" from="-E30" to="E31"/>
    <trip id="297" depart="148.50" from="-E31" to="E33"/>
    <trip id="298" depart="149.00" from="E27" to="-E32"/>
    <trip id="299" depart="149.50" from="-E26" to="E35"/>
    <trip id="300" depart="150.00" from="-E26" to="E31"/>
    <trip id="301" depart="150.50" from="-E33" to="E31"/>
    <trip id="302" depart="151.00" from="E23" to="E30"/>
    <trip id="303" depart="151.50" from="-E33" to="E31"/>
    <trip id="304" depart="152.00" from="-E26" to="-E32"/>
    <trip id="305" depart="152.50" from="E23" to="-E34"/>
    <trip id="306" depart="153.00" from="-E35" to="E26"/>
    <trip id="307" depart="153.50" from="-E35" to="E26"/>
    <trip id="308" depart="154.00" from="E27" to="-E34"/>
    <trip id="309" depart="154.50" from="E27" to="-E32"/>
    <trip id="310" depart="155.00" from="-E30" to="-E27"/>
    <trip id="311" depart="155.50" from="-E29" to="-E27"/>
    <trip id="312" depart="156.00" from="-E35" to="E31"/>
    <trip id="313" depart="156.50" from="-E29" to="-E32"/>
    <trip id="314" depart="157.00" from="-E33" to="E31"/>
    <trip id="315" depart="157.50" from="E34" to="E29"/>
    <trip id="316" depart="158.00" from="-E30" to="-E27"/>
    <trip id="317" depart="158.50" from="-E29" to="-E32"/>
    <trip id="318" depart="159.00" from="-E29" to="-E23"/>
    <trip id="319" depart="159.50" from="-E35" to="-E32"/>
    <trip id="320" depart="160.00" from="E34" to="E29"/>
    <trip id="321" depart="160.50" from="E23" to="-E27"/>
    <trip id="322" depart="161.00" from="E32" to="E26"/>
    <trip id="323" depart="161.50" from="E32" to="E29"/>
    <trip id="324" depart="162.00" from="-E33" to="E26"/>
    <trip id="325" depart="162.50" from="-E29" to="-E23"/>
    <trip id="326" depart="163.00" from="E34" to="E26"/>
    <trip id="327" depart="163.50" from="E32" to="E26"/>
    <trip id="328" depart="164.00" from="-E26" to="E30"/>
    <trip id="329" depart="164.50" from="-E26" to="-E27"/>
    <trip id="330" depart="165.00" from="-E35" to="-E34"/>
    <trip id="331" depart="165.50" from="E34" to="-E27"/>
    <trip id="332" depart="166.00" from="E27" to="E30"/>
    <trip id="333" depart="166.50" from="E27" to="-E32"/>
    <trip id="334" depart="167.00" from="-E35" to="E26"/>
    <trip id="337" depart="168.50" from="E23" to="E30"/>
    <trip id="338" depart="169.00" from="E27" to="E35"/>
    <trip id="339" depart="169.50" from="-E30" to="-E32"/>
    <trip id="340" depart="170.00" from="E23" to="-E27"/>
    <trip id="341" depart="170.50" from="-E29" to="-E23"/>
    <trip id="343" depart="171.50" from="-E35" to="-E32"/>
    <trip id="344" depart="172.00" from="-E30" to="E31"/>
    <trip id="345" depart="172.50" from="E27" to="E26"/>
    <trip id="346" depart="173.00" from="E23" to="E35"/>
    <trip id="347" depart="173.50" from="E27" to="E30"/>
    <trip id="348" depart="174.00" from="E23" to="E35"/>
    <trip id="349" depart="174.50" from="-E33" to="E29"/>
    <trip id="350" depart="175.00" from="E23" to="E35"/>
    <trip id="351" depart="175.50" from="E32" to="-E23"/>
    <trip id="352" depart="176.00" from="-E29" to="-E34"/>
    <trip id="353" depart="176.50" from="E27" to="E29"/>
    <trip id="354" depart="177.00" from="-E30" to="-E27"/>
    <trip id="355" depart="177.50" from="E23" to="E30"/>
    <trip id="356" depart="178.00" from="E34" to="E29"/>
    <trip id="357" depart="178.50" from="-E33" to="-E23"/>
    <trip id="359" depart="179.50" from="-E31" to="-E32"/>
    <trip id="360" depart="180.00" from="-E26" to="E35"/>
    <trip id="361" depart="180.50" from="E32" to="E29"/>
    <trip id="362" depart="181.00" from="E34" to="E35"/>
    <trip id="363" depart="181.50" from="E23" to="-E32"/>
    <trip id="364" depart="182.00" from="-E26" to="E31"/>
    <trip id="365" depart="182.50" from="-E33" to="E30"/>
    <trip id="366" depart="183.00" from="E34" to="-E27"/>
    <trip id="367" depart="183.50" from="-E35" to="E30"/>
    <trip id="368" depart="184.00" from="-E33" to="-E23"/>
    <trip id="369" depart="184.50" from="-E31" to="-E34"/>
    <trip id="370" depart="185.00" from="E23" to="E33"/>
    <trip id="371" depart="185.50" from="-E31" to="E30"/>
    <trip id="372" depart="186.00" from="-E30" to="E35"/>
    <trip id="373" depart="186.50" from="E32" to="E29"/>
    <trip id="374" depart="187.00" from="-E33" to="-E34"/>
    <trip id="375" depart="187.50" from="-E31" to="E35"/>
    <trip id="376" depart="188.00" from="-E33" to="E29"/>
    <trip id="377" depart="188.50" from="E34" to="E30"/>
    <trip id="378" depart="189.00" from="-E35" to="E26"/>
    <trip id="379" depart="189.50" from="-E29" to="-E34"/>
    <trip id="380" depart="190.00" from="E27" to="E30"/>
    <trip id="381" depart="190.50" from="E27" to="-E32"/>
    <trip id="383" depart="191.50" from="-E33" to="E30"/>
    <trip id="384" depart="192.00" from="-E29" to="E35"/>
    <trip id="385" depart="192.50" from="E23" to="-E32"/>
    <trip id="387" depart="193.50" from="-E35" to="-E23"/>
    <trip id="388" depart="194.00" from="E34" to="E35"/>
    <trip id="389" depart="194.50" from="-E33" to="-E27"/>
    <trip id="390" depart="195.00" from="E32" to="E26"/>
    <trip id="391" depart="195.50" from="E27" to="E29"/>
    <trip id="392" depart="196.00" from="-E30" to="E33"/>
    <trip id="393" depart="196.50" from="E34" to="-E32"/>
    <trip id="394" depart="197.00" from="-E35" to="-E34"/>
    <trip id="395" depart="197.50" from="E34" to="E29"/>
    <trip id="396" depart="198.00" from="E32" to="E33"/>
    <trip id="397" depart="198.50" from="-E30" to="E31"/>
    <trip id="398" depart="199.00" from="-E33" to="E35"/>
    <trip id="399" depart="199.50" from="-E35" to="E33"/>
    <trip id="400" depart="200.00" from="-E30" to="-E32"/>
    <trip id="402" depart="201.00" from="-E33" to="-E27"/>
    <trip id="403" depart="201.50" from="-E35" to="-E34"/>
    <trip id="404" depart="202.00" from="-E35" to="E29"/>
    <trip id="405" depart="202.50" from="-E33" to="-E34"/>
    <trip id="406" depart="203.00" from="-E29" to="E30"/>
    <trip id="407" depart="203.50" from="-E35" to="-E32"/>
    <trip id="408" depart="204.00" from="E27" to="-E23"/>
    <trip id="409" depart="204.50" from="E27" to="E31"/>
    <trip id="410" depart="205.00" from="E32" to="-E34"/>
    <trip id="411" depart="205.50" from="E23" to="E33"/>
    <trip id="412" depart="206.00" from="E34" to="E26"/>
    <trip id="413" depart="206.50" from="-E26" to="E29"/>
    <trip id="414" depart="207.00" from="-E35" to="E33"/>
    <trip id="415" depart="207.50" from="E32" to="E26"/>
    <trip id="416" depart="208.00" from="-E35" to="E26"/>
    <trip id="417" depart="208.50" from="E27" to="E26"/>
    <trip id="418" depart="209.00" from="E23" to="-E27"/>
    <trip id="419" depart="209.50" from="-E33" to="E35"/>
    <trip id="420" depart="210.00" from="-E31" to="E30"/>
    <trip id="421" depart="210.50" from="E23" to="E33"/>
    <trip id="422" depart="211.00" from="E32" to="E33"/>
    <trip id="423" depart="211.50" from="-E31" to="-E34"/>
    <trip id="424" depart="212.00" from="E27" to="E31"/>
    <trip id="425" depart="212.50" from="E32" to="-E23"/>
    <trip id="426" depart="213.00" from="-E26" to="E30"/>
    <trip id="427" depart="213.50" from="E34" to="E35"/>
    <trip id="428" depart="214.00" from="E27" to="E26"/>
    <trip id="429" depart="214.50" from="-E26" to="E30"/>
    <trip id="430" depart="215.00" from="E32" to="E26"/>
    <trip id="431" depart="215.50" from="E23" to="E35"/>
    <trip id="432" depart="216.00" from="-E26" to="E31"/>
    <trip id="433" depart="216.50" from="-E30" to="-E34"/>
    <trip id="435" depart="217.50" from="-E35" to="E31"/>
    <trip id="436" depart="218.00" from="-E29" to="-E23"/>
    <trip id="437" depart="218.50" from="E32" to="E30"/>
    <trip id="438" depart="219.00" from="-E30" to="E35"/>
    <trip id="439" depart="219.50" from="-E29" to="E26"/>
    <trip id="440" depart="220.00" from="-E30" to="-E32"/>
    <trip id="441" depart="220.50" from="-E26" to="E33"/>
    <trip id="442" depart="221.00" from="E34" to="E30"/>
    <trip id="443" depart="221.50" from="-E29" to="E26"/>
    <trip id="444" depart="222.00" from="-E31" to="E29"/>
    <trip id="445" depart="222.50" from="E23" to="E26"/>
    <trip id="446" depart="223.00" from="-E30" to="E33"/>
    <trip id="447" depart="223.50" from="-E29" to="-E34"/>
    <trip id="448" depart="224.00" from="-E33" to="-E32"/>
    <trip id="449" depart="224.50" from="-E35" to="E29"/>
    <trip id="450" depart="225.00" from="E34" to="-E32"/>
    <trip id="451" depart="225.50" from="E34" to="E30"/>
    <trip id="452" depart="226.00" from="-E30" to="E29"/>
    <trip id="453" depart="226.50" from="E23" to="E31"/>
    <trip id="454" depart="227.00" from="-E26" to="E30"/>
    <trip id="455" depart="227.50" from="-E33" to="E35"/>
    <trip id="456" depart="228.00" from="-E30" to="E31"/>
    <trip id="457" depart="228.50" from="E23" to="-E34"/>
    <trip id="458" depart="229.00" from="E23" to="E30"/>
    <trip id="459" depart="229.50" from="E23" to="E31"/>
    <trip id="460" depart="230.00" from="E23" to="E33"/>
    <trip id="461" depart="230.50" from="E23" to="E35"/>
    <trip id="462" depart="231.00" from="E23" to="-E34"/>
    <trip id="463" depart="231.50" from="-E33" to="E29"/>
    <trip id="464" depart="232.00" from="E27" to="-E23"/>
    <trip id="465" depart="232.50" from="-E30" to="E31"/>
    <trip id="466" depart="233.00" from="-E29" to="-E27"/>
    <trip id="470" depart="235.00" from="E32" to="E26"/>
    <trip id="471" depart="235.50" from="E32" to="E31"/>
    <trip id="472" depart="236.00" from="-E31" to="-E27"/>
    <trip id="473" depart="236.50" from="E34" to="-E27"/>
    <trip id="474" depart="237.00" from="E34" to="E33"/>
    <trip id="475" depart="237.50" from="E27" to="E35"/>
    <trip id="476" depart="238.00" from="E34" to="E33"/>
    <trip id="478" depart="239.00" from="-E26" to="E29"/>
    <trip id="479" depart="239.50" from="-E33" to="E30"/>
    <trip id="480" depart="240.00" from="E23" to="E29"/>
    <trip id="481" depart="240.50" from="E32" to="E35"/>
    <trip id="482" depart="241.00" from="-E29" to="-E32"/>
    <trip id="483" depart="241.50" from="-E26" to="E33"/>
    <trip id="485" depart="242.50" from="-E30" to="-E23"/>
    <trip id="486" depart="243.00" from="E32" to="E35"/>
    <trip id="487" depart="243.50" from="-E31" to="E26"/>
    <trip id="488" depart="244.00" from="-E29" to="E35"/>
    <trip id="489" depart="244.50" from="-E31" to="E26"/>
    <trip id="490" depart="245.00" from="-E26" to="E33"/>
    <trip id="491" depart="245.50" from="-E29" to="E26"/>
    <trip id="492" depart="246.00" from="E23" to="E31"/>
    <trip id="493" depart="246.50" from="E34" to="E26"/>
    <trip id="495" depart="247.50" from="-E33" to="-E23"/>
    <trip id="496" depart="248.00" from="-E33" to="E26"/>
    <trip id="497" depart="248.50" from="E34" to="-E23"/>
    <trip id="498" depart="249.00" from="-E31" to="E26"/>
    <trip id="499" depart="249.50" from="E34" to="E33"/>
    <trip id="500" depart="250.00" from="-E26" to="E30"/>
    <trip id="502" depart="251.00" from="-E31" to="-E34"/>
    <trip id="503" depart="251.50" from="-E29" to="-E27"/>
    <trip id="504" depart="252.00" from="E32" to="E26"/>
    <trip id="505" depart="252.50" from="E23" to="E30"/>
    <trip id="506" depart="253.00" from="-E35" to="-E23"/>
    <trip id="507" depart="253.50" from="E27" to="-E32"/>
    <trip id="509" depart="254.50" from="-E26" to="E31"/>
    <trip id="510" depart="255.00" from="-E30" to="-E32"/>
    <trip id="511" depart="255.50" from="E32" to="-E34"/>
    <trip id="512" depart="256.00" from="-E29" to="E35"/>
    <trip id="513" depart="256.50" from="-E26" to="E33"/>
    <trip id="514" depart="257.00" from="-E29" to="-E27"/>
    <trip id="515" depart="257.50" from="-E30" to="-E27"/>
    <trip id="517" depart="258.50" from="-E26" to="E31"/>
    <trip id="518" depart="259.00" from="-E30" to="-E34"/>
    <trip id="519" depart="259.50" from="-E29" to="-E23"/>
    <trip id="520" depart="260.00" from="E27" to="E29"/>
    <trip id="521" depart="260.50" from="E27" to="E26"/>
    <trip id="522" depart="261.00" from="E27" to="E29"/>
    <trip id="524" depart="262.00" from="E34" to="-E23"/>
    <trip id="525" depart="262.50" from="E27" to="E33"/>
    <trip id="526" depart="263.00" from="-E35" to="E26"/>
    <trip id="527" depart="263.50" from="E34" to="-E23"/>
    <trip id="528" depart="264.00" from="-E33" to="E26"/>
    <trip id="529" depart="264.50" from="E23" to="E26"/>
    <trip id="530" depart="265.00" from="E34" to="-E23"/>
    <trip id="531" depart="265.50" from="-E26" to="E30"/>
    <trip id="532" depart="266.00" from="-E26" to="-E32"/>
    <trip id="533" depart="266.50" from="E23" to="E29"/>
    <trip id="534" depart="267.00" from="-E31" to="E35"/>
    <trip id="535" depart="267.50" from="-E35" to="E26"/>
    <trip id="537" depart="268.50" from="E27" to="E33"/>
    <trip id="538" depart="269.00" from="E23" to="E31"/>
    <trip id="539" depart="269.50" from="E27" to="-E32"/>
    <trip id="540" depart="270.00" from="-E33" to="-E32"/>
    <trip id="541" depart="270.50" from="-E31" to="E26"/>
    <trip id="542" depart="271.00" from="-E33" to="-E23"/>
    <trip id="543" depart="271.50" from="-E33" to="E30"/>
    <trip id="544" depart="272.00" from="-E31" to="-E27"/>
    <trip id="545" depart="272.50" from="E34" to="-E23"/>
    <trip id="546" depart="273.00" from="E32" to="-E23"/>
    <trip id="547" depart="273.50" from="-E26" to="E31"/>
    <trip id="548" depart="274.00" from="E32" to="E29"/>
    <trip id="549" depart="274.50" from="-E35" to="E29"/>
    <trip id="550" depart="275.00" from="-E31" to="-E27"/>
    <trip id="551" depart="275.50" from="-E31" to="E30"/>
    <trip id="552" depart="276.00" from="E27" to="E33"/>
    <trip id="553" depart="276.50" from="E27" to="E35"/>